
  Mrv0541 04011510472D          

 19 20  0  0  0  0            999 V2000
   -0.7145   -0.4125    0.0000 C   0  0  0  0  0  0  0  0  0  0  0  0
   -0.7145   -1.2375    0.0000 C   0  0  0  0  0  0  0  0  0  0  0  0
    0.0000   -1.6500    0.0000 N   0  0  0  0  0  0  0  0  0  0  0  0
    0.0000   -2.4750    0.0000 C   0  0  0  0  0  0  0  0  0  0  0  0
    0.7145   -2.8875    0.0000 N   0  0  0  0  0  0  0  0  0  0  0  0
    1.4289   -2.4750    0.0000 C   0  0  0  0  0  0  0  0  0  0  0  0
    1.4289   -1.6500    0.0000 C   0  0  0  0  0  0  0  0  0  0  0  0
    2.1434   -1.2375    0.0000 C   0  0  0  0  0  0  0  0  0  0  0  0
    2.8579   -1.6500    0.0000 C   0  0  0  0  0  0  0  0  0  0  0  0
    2.8579   -2.4750    0.0000 C   0  0  0  0  0  0  0  0  0  0  0  0
    2.1434   -2.8875    0.0000 C   0  0  0  0  0  0  0  0  0  0  0  0
    3.5724   -2.8875    0.0000 N   0  3  0  0  0  0  0  0  0  0  0  0
    4.2868   -2.4750    0.0000 O   0  0  0  0  0  0  0  0  0  0  0  0
    3.5724   -3.7125    0.0000 O   0  5  0  0  0  0  0  0  0  0  0  0
    3.5724   -1.2375    0.0000 C   0  0  0  0  0  0  0  0  0  0  0  0
   -0.7145   -2.8875    0.0000 N   0  0  0  0  0  0  0  0  0  0  0  0
   -1.4289   -2.4750    0.0000 C   0  0  0  0  0  0  0  0  0  0  0  0
   -1.4289   -1.6500    0.0000 C   0  0  0  0  0  0  0  0  0  0  0  0
   -2.1434   -2.8875    0.0000 C   0  0  0  0  0  0  0  0  0  0  0  0
  1  2  1  0  0  0  0
  2  3  4  0  0  0  0
  3  4  4  0  0  0  0
  4  5  1  0  0  0  0
  5  6  1  0  0  0  0
  6  7  4  0  0  0  0
  7  8  4  0  0  0  0
  8  9  4  0  0  0  0
  9 10  4  0  0  0  0
 10 11  4  0  0  0  0
  6 11  4  0  0  0  0
 10 12  1  0  0  0  0
 12 13  2  0  0  0  0
 12 14  1  0  0  0  0
  9 15  1  0  0  0  0
  4 16  4  0  0  0  0
 16 17  4  0  0  0  0
 17 18  4  0  0  0  0
  2 18  4  0  0  0  0
 17 19  1  0  0  0  0
M  CHG  2  12   1  14  -1
M  END
>  <version_id> [MProp:scalar:integer]
542560

$$$$

  Mrv0541 04011510472D          

 21 23  0  0  0  0            999 V2000
    2.1434   -2.8875    0.0000 N   0  0  0  0  0  0  0  0  0  0  0  0
    2.1434   -3.7125    0.0000 C   0  0  0  0  0  0  0  0  0  0  0  0
    2.8579   -4.1250    0.0000 C   0  0  0  0  0  0  0  0  0  0  0  0
    2.8579   -4.9500    0.0000 C   0  0  0  0  0  0  0  0  0  0  0  0
    2.1434   -5.3625    0.0000 C   0  0  0  0  0  0  0  0  0  0  0  0
    1.4289   -4.9500    0.0000 C   0  0  0  0  0  0  0  0  0  0  0  0
    1.4289   -4.1250    0.0000 C   0  0  0  0  0  0  0  0  0  0  0  0
    0.7145   -5.3625    0.0000 N   0  0  0  0  0  0  0  0  0  0  0  0
    0.7145   -6.1875    0.0000 C   0  0  0  0  0  0  0  0  0  0  0  0
    1.4289   -6.6000    0.0000 N   0  0  0  0  0  0  0  0  0  0  0  0
    1.4289   -7.4250    0.0000 C   0  0  0  0  0  0  0  0  0  0  0  0
    0.7145   -7.8375    0.0000 C   0  0  0  0  0  0  0  0  0  0  0  0
    0.0000   -7.4250    0.0000 C   0  0  0  0  0  0  0  0  0  0  0  0
    0.0000   -6.6000    0.0000 N   0  0  0  0  0  0  0  0  0  0  0  0
   -0.7145   -7.8375    0.0000 C   0  0  0  0  0  0  0  0  0  0  0  0
   -0.7145   -8.6625    0.0000 C   0  0  0  0  0  0  0  0  0  0  0  0
   -1.4289   -9.0750    0.0000 C   0  0  0  0  0  0  0  0  0  0  0  0
   -2.1434   -8.6625    0.0000 C   0  0  0  0  0  0  0  0  0  0  0  0
   -2.1434   -7.8375    0.0000 N   0  0  0  0  0  0  0  0  0  0  0  0
   -1.4289   -7.4250    0.0000 C   0  0  0  0  0  0  0  0  0  0  0  0
    2.1434   -6.1875    0.0000 C   0  0  0  0  0  0  0  0  0  0  0  0
  1  2  1  0  0  0  0
  2  3  4  0  0  0  0
  3  4  4  0  0  0  0
  4  5  4  0  0  0  0
  5  6  4  0  0  0  0
  6  7  4  0  0  0  0
  2  7  4  0  0  0  0
  6  8  1  0  0  0  0
  8  9  1  0  0  0  0
  9 10  4  0  0  0  0
 10 11  4  0  0  0  0
 11 12  4  0  0  0  0
 12 13  4  0  0  0  0
 13 14  4  0  0  0  0
  9 14  4  0  0  0  0
 13 15  1  0  0  0  0
 15 16  4  0  0  0  0
 16 17  4  0  0  0  0
 17 18  4  0  0  0  0
 18 19  4  0  0  0  0
 19 20  4  0  0  0  0
 15 20  4  0  0  0  0
  5 21  1  0  0  0  0
M  END
>  <version_id> [MProp:scalar:integer]
2727697

$$$$

  Mrv0541 04011510472D          

 30 33  0  0  0  0            999 V2000
   -3.5724   -6.1875    0.0000 O   0  0  0  0  0  0  0  0  0  0  0  0
   -2.8579   -6.6000    0.0000 C   0  0  0  0  0  0  0  0  0  0  0  0
   -2.8579   -7.4250    0.0000 C   0  0  0  0  0  0  0  0  0  0  0  0
   -2.4454   -8.1395    0.0000 C   0  0  0  0  0  0  0  0  0  0  0  0
   -3.2704   -8.1395    0.0000 C   0  0  0  0  0  0  0  0  0  0  0  0
   -2.1434   -6.1875    0.0000 N   0  0  0  0  0  0  0  0  0  0  0  0
   -2.1434   -5.3625    0.0000 C   0  0  0  0  0  0  0  0  0  0  0  0
   -2.8579   -4.9500    0.0000 C   0  0  0  0  0  0  0  0  0  0  0  0
   -2.8579   -4.1250    0.0000 C   0  0  0  0  0  0  0  0  0  0  0  0
   -2.1434   -3.7125    0.0000 C   0  0  0  0  0  0  0  0  0  0  0  0
   -1.4289   -4.1250    0.0000 C   0  0  0  0  0  0  0  0  0  0  0  0
   -1.4289   -4.9500    0.0000 C   0  0  0  0  0  0  0  0  0  0  0  0
   -0.7145   -3.7125    0.0000 N   0  0  0  0  0  0  0  0  0  0  0  0
   -0.7145   -2.8875    0.0000 C   0  0  0  0  0  0  0  0  0  0  0  0
   -1.4289   -2.4750    0.0000 N   0  0  0  0  0  0  0  0  0  0  0  0
   -1.4289   -1.6500    0.0000 C   0  0  0  0  0  0  0  0  0  0  0  0
   -0.7145   -1.2375    0.0000 C   0  0  0  0  0  0  0  0  0  0  0  0
    0.0000   -1.6500    0.0000 C   0  0  0  0  0  0  0  0  0  0  0  0
    0.0000   -2.4750    0.0000 N   0  0  0  0  0  0  0  0  0  0  0  0
    0.7145   -1.2375    0.0000 N   0  0  0  0  0  0  0  0  0  0  0  0
    0.7145   -0.4125    0.0000 C   0  0  0  0  0  0  0  0  0  0  0  0
    0.0000    0.0000    0.0000 C   0  0  0  0  0  0  0  0  0  0  0  0
    0.0000    0.8250    0.0000 C   0  0  0  0  0  0  0  0  0  0  0  0
    0.7145    1.2375    0.0000 C   0  0  0  0  0  0  0  0  0  0  0  0
    1.4289    0.8250    0.0000 C   0  0  0  0  0  0  0  0  0  0  0  0
    1.4289    0.0000    0.0000 C   0  0  0  0  0  0  0  0  0  0  0  0
    2.1434    1.2375    0.0000 C   0  0  0  0  0  0  0  0  0  0  0  0
    2.8579    1.6500    0.0000 F   0  0  0  0  0  0  0  0  0  0  0  0
    2.5559    0.5230    0.0000 F   0  0  0  0  0  0  0  0  0  0  0  0
    1.7309    1.9520    0.0000 F   0  0  0  0  0  0  0  0  0  0  0  0
  1  2  2  0  0  0  0
  2  3  1  0  0  0  0
  3  4  1  0  0  0  0
  4  5  1  0  0  0  0
  3  5  1  0  0  0  0
  2  6  1  0  0  0  0
  6  7  1  0  0  0  0
  7  8  4  0  0  0  0
  8  9  4  0  0  0  0
  9 10  4  0  0  0  0
 10 11  4  0  0  0  0
 11 12  4  0  0  0  0
  7 12  4  0  0  0  0
 11 13  1  0  0  0  0
 13 14  1  0  0  0  0
 14 15  4  0  0  0  0
 15 16  4  0  0  0  0
 16 17  4  0  0  0  0
 17 18  4  0  0  0  0
 18 19  4  0  0  0  0
 14 19  4  0  0  0  0
 18 20  1  0  0  0  0
 20 21  1  0  0  0  0
 21 22  4  0  0  0  0
 22 23  4  0  0  0  0
 23 24  4  0  0  0  0
 24 25  4  0  0  0  0
 25 26  4  0  0  0  0
 21 26  4  0  0  0  0
 25 27  1  0  0  0  0
 27 28  1  0  0  0  0
 27 29  1  0  0  0  0
 27 30  1  0  0  0  0
M  END
>  <version_id> [MProp:scalar:integer]
11326039

$$$$

  Mrv0541 04011510472D          

 30 32  0  0  0  0            999 V2000
    2.8579   -1.6500    0.0000 O   0  0  0  0  0  0  0  0  0  0  0  0
    2.8579   -2.4750    0.0000 C   0  0  0  0  0  0  0  0  0  0  0  0
    2.1434   -2.8875    0.0000 N   0  0  0  0  0  0  0  0  0  0  0  0
    2.1434   -3.7125    0.0000 C   0  0  0  0  0  0  0  0  0  0  0  0
    2.8579   -4.1250    0.0000 C   0  0  0  0  0  0  0  0  0  0  0  0
    2.8579   -4.9500    0.0000 C   0  0  0  0  0  0  0  0  0  0  0  0
    2.1434   -5.3625    0.0000 C   0  0  0  0  0  0  0  0  0  0  0  0
    1.4289   -4.9500    0.0000 C   0  0  0  0  0  0  0  0  0  0  0  0
    1.4289   -4.1250    0.0000 C   0  0  0  0  0  0  0  0  0  0  0  0
    0.7145   -3.7125    0.0000 C   0  0  0  0  0  0  0  0  0  0  0  0
    3.5724   -5.3625    0.0000 N   0  3  0  0  0  0  0  0  0  0  0  0
    3.5724   -6.1875    0.0000 O   0  0  0  0  0  0  0  0  0  0  0  0
    4.2868   -4.9500    0.0000 O   0  5  0  0  0  0  0  0  0  0  0  0
    1.4289   -2.4750    0.0000 C   0  0  0  0  0  0  0  0  0  0  0  0
    0.7145   -2.8875    0.0000 N   0  0  0  0  0  0  0  0  0  0  0  0
    0.0000   -2.4750    0.0000 C   0  0  0  0  0  0  0  0  0  0  0  0
    0.0000   -1.6500    0.0000 C   0  0  0  0  0  0  0  0  0  0  0  0
    0.7145   -1.2375    0.0000 C   0  0  0  0  0  0  0  0  0  0  0  0
    1.4289   -1.6500    0.0000 N   0  0  0  0  0  0  0  0  0  0  0  0
    0.7145   -0.4125    0.0000 C   0  0  0  0  0  0  0  0  0  0  0  0
    0.0000    0.0000    0.0000 C   0  0  0  0  0  0  0  0  0  0  0  0
    0.0000    0.8250    0.0000 C   0  0  0  0  0  0  0  0  0  0  0  0
    0.7145    1.2375    0.0000 C   0  0  0  0  0  0  0  0  0  0  0  0
    1.4289    0.8250    0.0000 N   0  0  0  0  0  0  0  0  0  0  0  0
    1.4289    0.0000    0.0000 C   0  0  0  0  0  0  0  0  0  0  0  0
    3.5724   -2.8875    0.0000 O   0  0  0  0  0  0  0  0  0  0  0  0
    4.2868   -2.4750    0.0000 C   0  0  0  0  0  0  0  0  0  0  0  0
    4.6993   -3.1895    0.0000 C   0  0  0  0  0  0  0  0  0  0  0  0
    3.8743   -1.7605    0.0000 C   0  0  0  0  0  0  0  0  0  0  0  0
    5.0013   -2.0625    0.0000 C   0  0  0  0  0  0  0  0  0  0  0  0
  1  2  2  0  0  0  0
  2  3  1  0  0  0  0
  3  4  1  0  0  0  0
  4  5  4  0  0  0  0
  5  6  4  0  0  0  0
  6  7  4  0  0  0  0
  7  8  4  0  0  0  0
  8  9  4  0  0  0  0
  4  9  4  0  0  0  0
  9 10  1  0  0  0  0
  6 11  1  0  0  0  0
 11 12  2  0  0  0  0
 11 13  1  0  0  0  0
  3 14  1  0  0  0  0
 14 15  4  0  0  0  0
 15 16  4  0  0  0  0
 16 17  4  0  0  0  0
 17 18  4  0  0  0  0
 18 19  4  0  0  0  0
 14 19  4  0  0  0  0
 18 20  1  0  0  0  0
 20 21  4  0  0  0  0
 21 22  4  0  0  0  0
 22 23  4  0  0  0  0
 23 24  4  0  0  0  0
 24 25  4  0  0  0  0
 20 25  4  0  0  0  0
  2 26  1  0  0  0  0
 26 27  1  0  0  0  0
 27 28  1  0  0  0  0
 27 29  1  0  0  0  0
 27 30  1  0  0  0  0
M  CHG  2  11   1  13  -1
M  END
>  <version_id> [MProp:scalar:integer]
17405607

$$$$

  Mrv0541 04011510472D          

 31 34  0  0  0  0            999 V2000
    4.2868   -4.9500    0.0000 Cl  0  0  0  0  0  0  0  0  0  0  0  0
    5.0013   -5.3625    0.0000 C   0  0  0  0  0  0  0  0  0  0  0  0
    5.0013   -6.1875    0.0000 C   0  0  0  0  0  0  0  0  0  0  0  0
    5.7158   -6.6000    0.0000 C   0  0  0  0  0  0  0  0  0  0  0  0
    5.7158   -7.4250    0.0000 C   0  0  0  0  0  0  0  0  0  0  0  0
    5.0013   -7.8375    0.0000 C   0  0  0  0  0  0  0  0  0  0  0  0
    4.2868   -7.4250    0.0000 C   0  0  0  0  0  0  0  0  0  0  0  0
    4.2868   -6.6000    0.0000 C   0  0  0  0  0  0  0  0  0  0  0  0
    5.0013   -8.6625    0.0000 C   0  0  0  0  0  0  0  0  0  0  0  0
    5.7158   -9.0750    0.0000 O   0  0  0  0  0  0  0  0  0  0  0  0
    4.2868   -9.0750    0.0000 N   0  0  0  0  0  0  0  0  0  0  0  0
    4.2868   -9.9000    0.0000 C   0  0  0  0  0  0  0  0  0  0  0  0
    5.0013  -10.3125    0.0000 C   0  0  0  0  0  0  0  0  0  0  0  0
    5.0013  -11.1375    0.0000 C   0  0  0  0  0  0  0  0  0  0  0  0
    4.2868  -11.5500    0.0000 C   0  0  0  0  0  0  0  0  0  0  0  0
    3.5724  -11.1375    0.0000 C   0  0  0  0  0  0  0  0  0  0  0  0
    3.5724  -10.3125    0.0000 C   0  0  0  0  0  0  0  0  0  0  0  0
    2.8579  -11.5500    0.0000 N   0  0  0  0  0  0  0  0  0  0  0  0
    2.8579  -12.3750    0.0000 C   0  0  0  0  0  0  0  0  0  0  0  0
    3.5724  -12.7875    0.0000 N   0  0  0  0  0  0  0  0  0  0  0  0
    3.5724  -13.6125    0.0000 C   0  0  0  0  0  0  0  0  0  0  0  0
    2.8579  -14.0250    0.0000 C   0  0  0  0  0  0  0  0  0  0  0  0
    2.1434  -13.6125    0.0000 C   0  0  0  0  0  0  0  0  0  0  0  0
    2.1434  -12.7875    0.0000 N   0  0  0  0  0  0  0  0  0  0  0  0
    1.4289  -14.0250    0.0000 C   0  0  0  0  0  0  0  0  0  0  0  0
    1.4289  -14.8500    0.0000 C   0  0  0  0  0  0  0  0  0  0  0  0
    0.7145  -15.2625    0.0000 C   0  0  0  0  0  0  0  0  0  0  0  0
    0.0000  -14.8500    0.0000 C   0  0  0  0  0  0  0  0  0  0  0  0
    0.0000  -14.0250    0.0000 N   0  0  0  0  0  0  0  0  0  0  0  0
    0.7145  -13.6125    0.0000 C   0  0  0  0  0  0  0  0  0  0  0  0
    4.2868  -12.3750    0.0000 C   0  0  0  0  0  0  0  0  0  0  0  0
  1  2  1  0  0  0  0
  2  3  1  0  0  0  0
  3  4  4  0  0  0  0
  4  5  4  0  0  0  0
  5  6  4  0  0  0  0
  6  7  4  0  0  0  0
  7  8  4  0  0  0  0
  3  8  4  0  0  0  0
  6  9  1  0  0  0  0
  9 10  2  0  0  0  0
  9 11  1  0  0  0  0
 11 12  1  0  0  0  0
 12 13  4  0  0  0  0
 13 14  4  0  0  0  0
 14 15  4  0  0  0  0
 15 16  4  0  0  0  0
 16 17  4  0  0  0  0
 12 17  4  0  0  0  0
 16 18  1  0  0  0  0
 18 19  1  0  0  0  0
 19 20  4  0  0  0  0
 20 21  4  0  0  0  0
 21 22  4  0  0  0  0
 22 23  4  0  0  0  0
 23 24  4  0  0  0  0
 19 24  4  0  0  0  0
 23 25  1  0  0  0  0
 25 26  4  0  0  0  0
 26 27  4  0  0  0  0
 27 28  4  0  0  0  0
 28 29  4  0  0  0  0
 29 30  4  0  0  0  0
 25 30  4  0  0  0  0
 15 31  1  0  0  0  0
M  END
>  <version_id> [MProp:scalar:integer]
17405664

$$$$

  Mrv0541 04011510472D          

 23 25  0  0  0  0            999 V2000
    3.5724   -0.4125    0.0000 C   0  0  0  0  0  0  0  0  0  0  0  0
    3.5724   -1.2375    0.0000 C   0  0  0  0  0  0  0  0  0  0  0  0
    4.2868   -1.6500    0.0000 C   0  0  0  0  0  0  0  0  0  0  0  0
    4.2868   -2.4750    0.0000 C   0  0  0  0  0  0  0  0  0  0  0  0
    3.5724   -2.8875    0.0000 C   0  0  0  0  0  0  0  0  0  0  0  0
    2.8579   -2.4750    0.0000 C   0  0  0  0  0  0  0  0  0  0  0  0
    2.8579   -1.6500    0.0000 C   0  0  0  0  0  0  0  0  0  0  0  0
    2.1434   -1.2375    0.0000 N   0  0  0  0  0  0  0  0  0  0  0  0
    2.1434   -0.4125    0.0000 C   0  0  0  0  0  0  0  0  0  0  0  0
    1.4289    0.0000    0.0000 N   0  0  0  0  0  0  0  0  0  0  0  0
    1.4289    0.8250    0.0000 C   0  0  0  0  0  0  0  0  0  0  0  0
    2.1434    1.2375    0.0000 C   0  0  0  0  0  0  0  0  0  0  0  0
    2.8579    0.8250    0.0000 C   0  0  0  0  0  0  0  0  0  0  0  0
    2.8579    0.0000    0.0000 N   0  0  0  0  0  0  0  0  0  0  0  0
    3.5724    1.2375    0.0000 C   0  0  0  0  0  0  0  0  0  0  0  0
    3.5724    2.0625    0.0000 C   0  0  0  0  0  0  0  0  0  0  0  0
    4.2868    2.4750    0.0000 C   0  0  0  0  0  0  0  0  0  0  0  0
    5.0013    2.0625    0.0000 C   0  0  0  0  0  0  0  0  0  0  0  0
    5.0013    1.2375    0.0000 N   0  0  0  0  0  0  0  0  0  0  0  0
    4.2868    0.8250    0.0000 C   0  0  0  0  0  0  0  0  0  0  0  0
    3.5724   -3.7125    0.0000 N   0  3  0  0  0  0  0  0  0  0  0  0
    4.2868   -4.1250    0.0000 O   0  0  0  0  0  0  0  0  0  0  0  0
    2.8579   -4.1250    0.0000 O   0  5  0  0  0  0  0  0  0  0  0  0
  1  2  1  0  0  0  0
  2  3  4  0  0  0  0
  3  4  4  0  0  0  0
  4  5  4  0  0  0  0
  5  6  4  0  0  0  0
  6  7  4  0  0  0  0
  2  7  4  0  0  0  0
  7  8  1  0  0  0  0
  8  9  1  0  0  0  0
  9 10  4  0  0  0  0
 10 11  4  0  0  0  0
 11 12  4  0  0  0  0
 12 13  4  0  0  0  0
 13 14  4  0  0  0  0
  9 14  4  0  0  0  0
 13 15  1  0  0  0  0
 15 16  4  0  0  0  0
 16 17  4  0  0  0  0
 17 18  4  0  0  0  0
 18 19  4  0  0  0  0
 19 20  4  0  0  0  0
 15 20  4  0  0  0  0
  5 21  1  0  0  0  0
 21 22  2  0  0  0  0
 21 23  1  0  0  0  0
M  CHG  2  21   1  23  -1
M  END
>  <version_id> [MProp:scalar:integer]
17405605

$$$$

  Mrv0541 04011510472D          

 30 33  0  0  0  0            999 V2000
   -2.1434   -3.7125    0.0000 O   0  0  0  0  0  0  0  0  0  0  0  0
   -1.4289   -4.1250    0.0000 C   0  0  0  0  0  0  0  0  0  0  0  0
   -1.4289   -4.9500    0.0000 N   0  0  0  0  0  0  0  0  0  0  0  0
   -0.7615   -5.4349    0.0000 C   0  0  0  0  0  0  0  0  0  0  0  0
   -1.0164   -6.2195    0.0000 C   0  0  0  0  0  0  0  0  0  0  0  0
   -1.8414   -6.2195    0.0000 C   0  0  0  0  0  0  0  0  0  0  0  0
   -2.0964   -5.4349    0.0000 C   0  0  0  0  0  0  0  0  0  0  0  0
   -0.7145   -3.7125    0.0000 N   0  0  0  0  0  0  0  0  0  0  0  0
   -0.7145   -2.8875    0.0000 C   0  0  0  0  0  0  0  0  0  0  0  0
   -1.4289   -2.4750    0.0000 C   0  0  0  0  0  0  0  0  0  0  0  0
   -1.4289   -1.6500    0.0000 C   0  0  0  0  0  0  0  0  0  0  0  0
   -0.7145   -1.2375    0.0000 C   0  0  0  0  0  0  0  0  0  0  0  0
    0.0000   -1.6500    0.0000 C   0  0  0  0  0  0  0  0  0  0  0  0
    0.0000   -2.4750    0.0000 C   0  0  0  0  0  0  0  0  0  0  0  0
    0.7145   -1.2375    0.0000 N   0  0  0  0  0  0  0  0  0  0  0  0
    0.7145   -0.4125    0.0000 C   0  0  0  0  0  0  0  0  0  0  0  0
    0.0000    0.0000    0.0000 N   0  0  0  0  0  0  0  0  0  0  0  0
    0.0000    0.8250    0.0000 C   0  0  0  0  0  0  0  0  0  0  0  0
    0.7145    1.2375    0.0000 C   0  0  0  0  0  0  0  0  0  0  0  0
    1.4289    0.8250    0.0000 C   0  0  0  0  0  0  0  0  0  0  0  0
    1.4289    0.0000    0.0000 N   0  0  0  0  0  0  0  0  0  0  0  0
    2.1434    1.2375    0.0000 N   0  0  0  0  0  0  0  0  0  0  0  0
    2.8579    0.8250    0.0000 C   0  0  0  0  0  0  0  0  0  0  0  0
    3.5724    1.2375    0.0000 C   0  0  0  0  0  0  0  0  0  0  0  0
    3.5724    2.0625    0.0000 C   0  0  0  0  0  0  0  0  0  0  0  0
    2.9049    2.5474    0.0000 C   0  0  0  0  0  0  0  0  0  0  0  0
    3.1599    3.3320    0.0000 N   0  0  0  0  0  0  0  0  0  0  0  0
    3.9849    3.3320    0.0000 C   0  0  0  0  0  0  0  0  0  0  0  0
    4.2398    2.5474    0.0000 N   0  0  0  0  0  0  0  0  0  0  0  0
    0.7145    2.0625    0.0000 Br  0  0  0  0  0  0  0  0  0  0  0  0
  1  2  2  0  0  0  0
  2  3  1  0  0  0  0
  3  4  1  0  0  0  0
  4  5  1  0  0  0  0
  5  6  1  0  0  0  0
  6  7  1  0  0  0  0
  3  7  1  0  0  0  0
  2  8  1  0  0  0  0
  8  9  1  0  0  0  0
  9 10  4  0  0  0  0
 10 11  4  0  0  0  0
 11 12  4  0  0  0  0
 12 13  4  0  0  0  0
 13 14  4  0  0  0  0
  9 14  4  0  0  0  0
 13 15  1  0  0  0  0
 15 16  1  0  0  0  0
 16 17  4  0  0  0  0
 17 18  4  0  0  0  0
 18 19  4  0  0  0  0
 19 20  4  0  0  0  0
 20 21  4  0  0  0  0
 16 21  4  0  0  0  0
 20 22  1  0  0  0  0
 22 23  1  0  0  0  0
 23 24  1  0  0  0  0
 24 25  1  0  0  0  0
 25 26  4  0  0  0  0
 26 27  4  0  0  0  0
 27 28  4  0  0  0  0
 28 29  4  0  0  0  0
 25 29  4  0  0  0  0
 19 30  1  0  0  0  0
M  STY  1   1 DAT
M  SAL   1  1  27
M  SDT   1 MRV_IMPLICIT_H                                        
M  SDD   1     0.0000    0.0000    DR    ALL  0       0  
M  SED   1 IMPL_H1
M  END
>  <version_id> [MProp:scalar:integer]
31507616

$$$$

  Mrv0541 04011510472D          

 35 38  0  0  0  0            999 V2000
   -4.1801    0.7634    0.0000 O   0  0  0  0  0  0  0  0  0  0  0  0
   -4.1801   -0.0616    0.0000 C   0  0  0  0  0  0  0  0  0  0  0  0
   -4.8946   -0.4741    0.0000 N   0  0  0  0  0  0  0  0  0  0  0  0
   -4.8946   -1.2991    0.0000 C   0  0  0  0  0  0  0  0  0  0  0  0
   -4.2272   -1.7840    0.0000 S   0  0  0  0  0  0  0  0  0  0  0  0
   -4.4821   -2.5687    0.0000 C   0  0  0  0  0  0  0  0  0  0  0  0
   -5.3071   -2.5687    0.0000 C   0  0  0  0  0  0  0  0  0  0  0  0
   -5.5620   -1.7840    0.0000 C   0  0  0  0  0  0  0  0  0  0  0  0
   -6.3467   -1.5291    0.0000 C   0  0  0  0  0  0  0  0  0  0  0  0
   -6.5182   -0.7221    0.0000 C   0  0  0  0  0  0  0  0  0  0  0  0
   -5.9051   -0.1701    0.0000 O   0  0  0  0  0  0  0  0  0  0  0  0
   -7.3028   -0.4672    0.0000 N   0  0  0  0  0  0  0  0  0  0  0  0
   -7.4743    0.3398    0.0000 C   0  0  0  0  0  0  0  0  0  0  0  0
   -8.2589    0.5947    0.0000 N   0  0  0  0  0  0  0  0  0  0  0  0
   -8.4305    1.4017    0.0000 C   0  0  0  0  0  0  0  0  0  0  0  0
   -7.8174    1.9537    0.0000 N   0  0  0  0  0  0  0  0  0  0  0  0
   -7.0328    1.6988    0.0000 C   0  0  0  0  0  0  0  0  0  0  0  0
   -6.8612    0.8918    0.0000 C   0  0  0  0  0  0  0  0  0  0  0  0
   -6.0766    0.6369    0.0000 I   0  0  0  0  0  0  0  0  0  0  0  0
   -9.2151    1.6566    0.0000 N   0  0  0  0  0  0  0  0  0  0  0  0
   -9.8282    1.1046    0.0000 C   0  0  0  0  0  0  0  0  0  0  0  0
   -9.6567    0.2976    0.0000 C   0  0  0  0  0  0  0  0  0  0  0  0
  -10.2698   -0.2544    0.0000 C   0  0  0  0  0  0  0  0  0  0  0  0
  -11.0544    0.0005    0.0000 C   0  0  0  0  0  0  0  0  0  0  0  0
  -11.2259    0.8075    0.0000 C   0  0  0  0  0  0  0  0  0  0  0  0
  -10.6128    1.3595    0.0000 C   0  0  0  0  0  0  0  0  0  0  0  0
  -12.0105    1.0625    0.0000 N   0  0  0  0  0  0  0  0  0  0  0  0
  -12.6236    0.5104    0.0000 C   0  0  0  0  0  0  0  0  0  0  0  0
  -12.4521   -0.2965    0.0000 O   0  0  0  0  0  0  0  0  0  0  0  0
  -13.4082    0.7654    0.0000 N   0  0  0  0  0  0  0  0  0  0  0  0
  -14.0757    0.2804    0.0000 C   0  0  0  0  0  0  0  0  0  0  0  0
  -14.7431    0.7654    0.0000 C   0  0  0  0  0  0  0  0  0  0  0  0
  -14.4882    1.5500    0.0000 C   0  0  0  0  0  0  0  0  0  0  0  0
  -13.6632    1.5500    0.0000 C   0  0  0  0  0  0  0  0  0  0  0  0
   -6.9597   -2.0811    0.0000 C   0  0  0  0  0  0  0  0  0  0  0  0
  1  2  2  0  0  0  0
  2  3  1  0  0  0  0
  3  4  1  0  0  0  0
  4  5  4  0  0  0  0
  5  6  4  0  0  0  0
  6  7  4  0  0  0  0
  7  8  4  0  0  0  0
  4  8  4  0  0  0  0
  8  9  1  0  0  0  0
  9 10  1  0  0  0  0
 10 11  2  0  0  0  0
 10 12  1  0  0  0  0
 12 13  1  0  0  0  0
 13 14  4  0  0  0  0
 14 15  4  0  0  0  0
 15 16  4  0  0  0  0
 16 17  4  0  0  0  0
 17 18  4  0  0  0  0
 13 18  4  0  0  0  0
 18 19  1  0  0  0  0
 15 20  1  0  0  0  0
 20 21  1  0  0  0  0
 21 22  4  0  0  0  0
 22 23  4  0  0  0  0
 23 24  4  0  0  0  0
 24 25  4  0  0  0  0
 25 26  4  0  0  0  0
 21 26  4  0  0  0  0
 25 27  1  0  0  0  0
 27 28  1  0  0  0  0
 28 29  2  0  0  0  0
 28 30  1  0  0  0  0
 30 31  1  0  0  0  0
 31 32  1  0  0  0  0
 32 33  1  0  0  0  0
 33 34  1  0  0  0  0
 30 34  1  0  0  0  0
  9 35  1  0  0  0  0
M  END
>  <version_id> [MProp:scalar:integer]
31507618

$$$$

  Mrv0541 04011510472D          

 42 46  0  0  1  0            999 V2000
    0.6078   -8.7241    0.0000 C   0  0  0  0  0  0  0  0  0  0  0  0
   -0.1067   -9.1366    0.0000 N   0  0  0  0  0  0  0  0  0  0  0  0
   -0.1067   -9.9616    0.0000 C   0  0  1  0  0  0  0  0  0  0  0  0
    0.5607  -10.4465    0.0000 C   0  0  0  0  0  0  0  0  0  0  0  0
    0.3058  -11.2312    0.0000 C   0  0  0  0  0  0  0  0  0  0  0  0
   -0.5192  -11.2312    0.0000 N   0  0  0  0  0  0  0  0  0  0  0  0
   -0.7741  -10.4465    0.0000 C   0  0  0  0  0  0  0  0  0  0  0  0
   -1.0041  -11.8986    0.0000 C   0  0  0  0  0  0  0  0  0  0  0  0
   -1.8246  -11.8124    0.0000 C   0  0  0  0  0  0  0  0  0  0  0  0
   -2.3095  -12.4798    0.0000 C   0  0  0  0  0  0  0  0  0  0  0  0
   -3.1300  -12.3936    0.0000 C   0  0  0  0  0  0  0  0  0  0  0  0
   -3.4656  -11.6399    0.0000 C   0  0  0  0  0  0  0  0  0  0  0  0
   -2.9806  -10.9724    0.0000 C   0  0  0  0  0  0  0  0  0  0  0  0
   -2.1602  -11.0587    0.0000 C   0  0  0  0  0  0  0  0  0  0  0  0
   -1.6752  -10.3912    0.0000 C   0  0  0  0  0  0  0  0  0  0  0  0
   -1.1903   -9.7238    0.0000 F   0  0  0  0  0  0  0  0  0  0  0  0
   -1.0078  -10.8762    0.0000 F   0  0  0  0  0  0  0  0  0  0  0  0
   -2.3427   -9.9063    0.0000 F   0  0  0  0  0  0  0  0  0  0  0  0
   -4.2861  -11.5536    0.0000 C   0  0  0  0  0  0  0  0  0  0  0  0
   -4.7710  -12.2211    0.0000 O   0  0  0  0  0  0  0  0  0  0  0  0
   -4.6216  -10.8000    0.0000 N   0  0  0  0  0  0  0  0  0  0  0  0
   -5.4421  -10.7137    0.0000 C   0  0  0  0  0  0  0  0  0  0  0  0
   -5.9270  -11.3812    0.0000 C   0  0  0  0  0  0  0  0  0  0  0  0
   -6.7475  -11.2949    0.0000 C   0  0  0  0  0  0  0  0  0  0  0  0
   -7.0831  -10.5413    0.0000 C   0  0  0  0  0  0  0  0  0  0  0  0
   -6.5981   -9.8738    0.0000 C   0  0  0  0  0  0  0  0  0  0  0  0
   -5.7776   -9.9601    0.0000 C   0  0  0  0  0  0  0  0  0  0  0  0
   -6.9337   -9.1201    0.0000 N   0  0  0  0  0  0  0  0  0  0  0  0
   -7.7542   -9.0339    0.0000 C   0  0  0  0  0  0  0  0  0  0  0  0
   -8.2391   -9.7014    0.0000 N   0  0  0  0  0  0  0  0  0  0  0  0
   -9.0596   -9.6151    0.0000 C   0  0  0  0  0  0  0  0  0  0  0  0
   -9.3951   -8.8614    0.0000 C   0  0  0  0  0  0  0  0  0  0  0  0
   -8.9102   -8.1940    0.0000 C   0  0  0  0  0  0  0  0  0  0  0  0
   -8.0897   -8.2802    0.0000 N   0  0  0  0  0  0  0  0  0  0  0  0
  -10.2156   -8.7752    0.0000 C   0  0  0  0  0  0  0  0  0  0  0  0
  -10.7005   -9.4426    0.0000 C   0  0  0  0  0  0  0  0  0  0  0  0
  -11.5210   -9.3564    0.0000 N   0  0  0  0  0  0  0  0  0  0  0  0
  -11.8566   -8.6027    0.0000 C   0  0  0  0  0  0  0  0  0  0  0  0
  -11.3716   -7.9353    0.0000 N   0  0  0  0  0  0  0  0  0  0  0  0
  -10.5512   -8.0215    0.0000 C   0  0  0  0  0  0  0  0  0  0  0  0
   -7.9035  -10.4550    0.0000 C   0  0  0  0  0  0  0  0  0  0  0  0
   -0.8212   -8.7241    0.0000 C   0  0  0  0  0  0  0  0  0  0  0  0
  1  2  1  0  0  0  0
  3  2  1  1  0  0  0
  3  4  1  0  0  0  0
  4  5  1  0  0  0  0
  5  6  1  0  0  0  0
  6  7  1  0  0  0  0
  3  7  1  0  0  0  0
  6  8  1  0  0  0  0
  8  9  1  0  0  0  0
  9 10  4  0  0  0  0
 10 11  4  0  0  0  0
 11 12  4  0  0  0  0
 12 13  4  0  0  0  0
 13 14  4  0  0  0  0
  9 14  4  0  0  0  0
 14 15  1  0  0  0  0
 15 16  1  0  0  0  0
 15 17  1  0  0  0  0
 15 18  1  0  0  0  0
 12 19  1  0  0  0  0
 19 20  2  0  0  0  0
 19 21  1  0  0  0  0
 21 22  1  0  0  0  0
 22 23  4  0  0  0  0
 23 24  4  0  0  0  0
 24 25  4  0  0  0  0
 25 26  4  0  0  0  0
 26 27  4  0  0  0  0
 22 27  4  0  0  0  0
 26 28  1  0  0  0  0
 28 29  1  0  0  0  0
 29 30  4  0  0  0  0
 30 31  4  0  0  0  0
 31 32  4  0  0  0  0
 32 33  4  0  0  0  0
 33 34  4  0  0  0  0
 29 34  4  0  0  0  0
 32 35  1  0  0  0  0
 35 36  4  0  0  0  0
 36 37  4  0  0  0  0
 37 38  4  0  0  0  0
 38 39  4  0  0  0  0
 39 40  4  0  0  0  0
 35 40  4  0  0  0  0
 25 41  1  0  0  0  0
  2 42  1  0  0  0  0
M  END
>  <version_id> [MProp:scalar:integer]
32176577

$$$$

  Mrv0541 04011510472D          

 34 37  0  0  0  0            999 V2000
   -5.0013    2.8875    0.0000 O   0  0  0  0  0  0  0  0  0  0  0  0
   -5.0013    2.0625    0.0000 C   0  0  0  0  0  0  0  0  0  0  0  0
   -5.7158    1.6500    0.0000 N   0  0  0  0  0  0  0  0  0  0  0  0
   -5.8020    0.8295    0.0000 C   0  0  0  0  0  0  0  0  0  0  0  0
   -6.6090    0.6580    0.0000 C   0  0  0  0  0  0  0  0  0  0  0  0
   -7.0215    1.3725    0.0000 C   0  0  0  0  0  0  0  0  0  0  0  0
   -6.4694    1.9856    0.0000 C   0  0  0  0  0  0  0  0  0  0  0  0
   -4.2868    1.6500    0.0000 N   0  0  0  0  0  0  0  0  0  0  0  0
   -3.5724    2.0625    0.0000 C   0  0  0  0  0  0  0  0  0  0  0  0
   -3.5724    2.8875    0.0000 C   0  0  0  0  0  0  0  0  0  0  0  0
   -2.8579    3.3000    0.0000 C   0  0  0  0  0  0  0  0  0  0  0  0
   -2.1434    2.8875    0.0000 C   0  0  0  0  0  0  0  0  0  0  0  0
   -2.1434    2.0625    0.0000 C   0  0  0  0  0  0  0  0  0  0  0  0
   -2.8579    1.6500    0.0000 C   0  0  0  0  0  0  0  0  0  0  0  0
   -1.4289    1.6500    0.0000 N   0  0  0  0  0  0  0  0  0  0  0  0
   -0.7145    2.0625    0.0000 C   0  0  0  0  0  0  0  0  0  0  0  0
   -0.7145    2.8875    0.0000 N   0  0  0  0  0  0  0  0  0  0  0  0
    0.0000    3.3000    0.0000 C   0  0  0  0  0  0  0  0  0  0  0  0
    0.7145    2.8875    0.0000 C   0  0  0  0  0  0  0  0  0  0  0  0
    0.7145    2.0625    0.0000 C   0  0  0  0  0  0  0  0  0  0  0  0
    0.0000    1.6500    0.0000 N   0  0  0  0  0  0  0  0  0  0  0  0
    1.4289    1.6500    0.0000 N   0  0  0  0  0  0  0  0  0  0  0  0
    2.1434    2.0625    0.0000 C   0  0  0  0  0  0  0  0  0  0  0  0
    2.8579    1.6500    0.0000 C   0  0  0  0  0  0  0  0  0  0  0  0
    3.5724    2.0625    0.0000 C   0  0  0  0  0  0  0  0  0  0  0  0
    4.2868    1.6500    0.0000 N   0  0  0  0  0  0  0  0  0  0  0  0
    5.0013    2.0625    0.0000 C   0  0  0  0  0  0  0  0  0  0  0  0
    5.0013    2.8875    0.0000 O   0  0  0  0  0  0  0  0  0  0  0  0
    5.7158    1.6500    0.0000 C   0  0  0  0  0  0  0  0  0  0  0  0
    6.4694    1.9856    0.0000 C   0  0  0  0  0  0  0  0  0  0  0  0
    7.0215    1.3725    0.0000 C   0  0  0  0  0  0  0  0  0  0  0  0
    6.6090    0.6580    0.0000 C   0  0  0  0  0  0  0  0  0  0  0  0
    5.8020    0.8295    0.0000 S   0  0  0  0  0  0  0  0  0  0  0  0
    1.4289    3.3000    0.0000 I   0  0  0  0  0  0  0  0  0  0  0  0
  1  2  2  0  0  0  0
  2  3  1  0  0  0  0
  3  4  1  0  0  0  0
  4  5  1  0  0  0  0
  5  6  1  0  0  0  0
  6  7  1  0  0  0  0
  3  7  1  0  0  0  0
  2  8  1  0  0  0  0
  8  9  1  0  0  0  0
  9 10  4  0  0  0  0
 10 11  4  0  0  0  0
 11 12  4  0  0  0  0
 12 13  4  0  0  0  0
 13 14  4  0  0  0  0
  9 14  4  0  0  0  0
 13 15  1  0  0  0  0
 15 16  1  0  0  0  0
 16 17  4  0  0  0  0
 17 18  4  0  0  0  0
 18 19  4  0  0  0  0
 19 20  4  0  0  0  0
 20 21  4  0  0  0  0
 16 21  4  0  0  0  0
 20 22  1  0  0  0  0
 22 23  1  0  0  0  0
 23 24  1  0  0  0  0
 24 25  1  0  0  0  0
 25 26  1  0  0  0  0
 26 27  1  0  0  0  0
 27 28  2  0  0  0  0
 27 29  1  0  0  0  0
 29 30  4  0  0  0  0
 30 31  4  0  0  0  0
 31 32  4  0  0  0  0
 32 33  4  0  0  0  0
 29 33  4  0  0  0  0
 19 34  1  0  0  0  0
M  END
>  <version_id> [MProp:scalar:integer]
36367056

$$$$

  Mrv0541 04011510472D          

 16 17  0  0  0  0            999 V2000
    2.1434   -0.4125    0.0000 N   0  0  0  0  0  0  0  0  0  0  0  0
    2.1434   -1.2375    0.0000 C   0  0  0  0  0  0  0  0  0  0  0  0
    2.8579   -1.6500    0.0000 C   0  0  0  0  0  0  0  0  0  0  0  0
    2.8579   -2.4750    0.0000 C   0  0  0  0  0  0  0  0  0  0  0  0
    2.1434   -2.8875    0.0000 C   0  0  0  0  0  0  0  0  0  0  0  0
    1.4289   -2.4750    0.0000 C   0  0  0  0  0  0  0  0  0  0  0  0
    1.4289   -1.6500    0.0000 C   0  0  0  0  0  0  0  0  0  0  0  0
    0.7145   -2.8875    0.0000 N   0  0  0  0  0  0  0  0  0  0  0  0
    0.0000   -2.4750    0.0000 C   0  0  0  0  0  0  0  0  0  0  0  0
   -0.7145   -2.8875    0.0000 N   0  0  0  0  0  0  0  0  0  0  0  0
   -1.4289   -2.4750    0.0000 C   0  0  0  0  0  0  0  0  0  0  0  0
   -2.1434   -2.8875    0.0000 C   0  0  0  0  0  0  0  0  0  0  0  0
   -1.4289   -1.6500    0.0000 C   0  0  0  0  0  0  0  0  0  0  0  0
   -0.7145   -1.2375    0.0000 C   0  0  0  0  0  0  0  0  0  0  0  0
    0.0000   -1.6500    0.0000 N   0  0  0  0  0  0  0  0  0  0  0  0
   -0.7145   -0.4125    0.0000 C   0  0  0  0  0  0  0  0  0  0  0  0
  1  2  1  0  0  0  0
  2  3  4  0  0  0  0
  3  4  4  0  0  0  0
  4  5  4  0  0  0  0
  5  6  4  0  0  0  0
  6  7  4  0  0  0  0
  2  7  4  0  0  0  0
  6  8  1  0  0  0  0
  8  9  1  0  0  0  0
  9 10  4  0  0  0  0
 10 11  4  0  0  0  0
 11 12  1  0  0  0  0
 11 13  4  0  0  0  0
 13 14  4  0  0  0  0
 14 15  4  0  0  0  0
  9 15  4  0  0  0  0
 14 16  1  0  0  0  0
M  END
>  <version_id> [MProp:scalar:integer]
37688209

$$$$

  Mrv0541 04011510472D          

 28 29  0  0  0  0            999 V2000
   -2.1434    1.2375    0.0000 O   0  0  0  0  0  0  0  0  0  0  0  0
   -2.1434    0.4125    0.0000 C   0  0  0  0  0  0  0  0  0  0  0  0
   -1.4289    0.0000    0.0000 C   0  0  0  0  0  0  0  0  0  0  0  0
   -0.7145   -0.4125    0.0000 N   0  0  0  0  0  0  0  0  0  0  0  0
   -0.7145   -1.2375    0.0000 C   0  0  0  0  0  0  0  0  0  0  0  0
    0.0000   -1.6500    0.0000 N   0  0  0  0  0  0  0  0  0  0  0  0
    0.0000   -2.4750    0.0000 C   0  0  0  0  0  0  0  0  0  0  0  0
   -0.7145   -2.8875    0.0000 N   0  0  0  0  0  0  0  0  0  0  0  0
   -1.4289   -2.4750    0.0000 C   0  0  0  0  0  0  0  0  0  0  0  0
   -1.4289   -1.6500    0.0000 C   0  0  0  0  0  0  0  0  0  0  0  0
   -2.1434   -1.2375    0.0000 F   0  0  0  0  0  0  0  0  0  0  0  0
    0.7145   -2.8875    0.0000 N   0  0  0  0  0  0  0  0  0  0  0  0
    1.4289   -2.4750    0.0000 C   0  0  0  0  0  0  0  0  0  0  0  0
    1.4289   -1.6500    0.0000 C   0  0  0  0  0  0  0  0  0  0  0  0
    2.1434   -1.2375    0.0000 C   0  0  0  0  0  0  0  0  0  0  0  0
    2.8579   -1.6500    0.0000 C   0  0  0  0  0  0  0  0  0  0  0  0
    2.8579   -2.4750    0.0000 C   0  0  0  0  0  0  0  0  0  0  0  0
    2.1434   -2.8875    0.0000 C   0  0  0  0  0  0  0  0  0  0  0  0
    3.5724   -2.8875    0.0000 N   0  0  0  0  0  0  0  0  0  0  0  0
    4.2868   -2.4750    0.0000 C   0  0  0  0  0  0  0  0  0  0  0  0
    4.2868   -1.6500    0.0000 O   0  0  0  0  0  0  0  0  0  0  0  0
    5.0013   -2.8875    0.0000 N   0  0  0  0  0  0  0  0  0  0  0  0
    5.7158   -2.4750    0.0000 C   0  0  0  0  0  0  0  0  0  0  0  0
    6.4302   -2.0625    0.0000 C   0  0  0  0  0  0  0  0  0  0  0  0
    6.1283   -3.1895    0.0000 C   0  0  0  0  0  0  0  0  0  0  0  0
    5.3033   -1.7605    0.0000 C   0  0  0  0  0  0  0  0  0  0  0  0
   -1.8414   -0.7145    0.0000 C   0  0  0  0  0  0  0  0  0  0  0  0
   -1.0164    0.7145    0.0000 C   0  0  0  0  0  0  0  0  0  0  0  0
  1  2  1  0  0  0  0
  2  3  1  0  0  0  0
  3  4  1  0  0  0  0
  4  5  1  0  0  0  0
  5  6  4  0  0  0  0
  6  7  4  0  0  0  0
  7  8  4  0  0  0  0
  8  9  4  0  0  0  0
  9 10  4  0  0  0  0
  5 10  4  0  0  0  0
 10 11  1  0  0  0  0
  7 12  1  0  0  0  0
 12 13  1  0  0  0  0
 13 14  4  0  0  0  0
 14 15  4  0  0  0  0
 15 16  4  0  0  0  0
 16 17  4  0  0  0  0
 17 18  4  0  0  0  0
 13 18  4  0  0  0  0
 17 19  1  0  0  0  0
 19 20  1  0  0  0  0
 20 21  2  0  0  0  0
 20 22  1  0  0  0  0
 22 23  1  0  0  0  0
 23 24  1  0  0  0  0
 23 25  1  0  0  0  0
 23 26  1  0  0  0  0
  3 27  1  0  0  0  0
  3 28  1  0  0  0  0
M  END
>  <version_id> [MProp:scalar:integer]
43216032

$$$$

  Mrv0541 04011510472D          

 39 43  0  0  0  0            999 V2000
    0.0000   -6.6000    0.0000 C   0  0  0  0  0  0  0  0  0  0  0  0
   -0.7145   -6.1875    0.0000 N   0  0  0  0  0  0  0  0  0  0  0  0
   -0.7145   -5.3625    0.0000 C   0  0  0  0  0  0  0  0  0  0  0  0
    0.0000   -4.9500    0.0000 O   0  0  0  0  0  0  0  0  0  0  0  0
   -1.4289   -4.9500    0.0000 C   0  0  0  0  0  0  0  0  0  0  0  0
   -1.4289   -4.1250    0.0000 C   0  0  0  0  0  0  0  0  0  0  0  0
   -2.1434   -3.7125    0.0000 C   0  0  0  0  0  0  0  0  0  0  0  0
   -2.8579   -4.1250    0.0000 C   0  0  0  0  0  0  0  0  0  0  0  0
   -2.8579   -4.9500    0.0000 C   0  0  0  0  0  0  0  0  0  0  0  0
   -2.1434   -5.3625    0.0000 C   0  0  0  0  0  0  0  0  0  0  0  0
   -2.1434   -6.1875    0.0000 F   0  0  0  0  0  0  0  0  0  0  0  0
   -0.7145   -3.7125    0.0000 N   0  0  0  0  0  0  0  0  0  0  0  0
   -0.7145   -2.8875    0.0000 C   0  0  0  0  0  0  0  0  0  0  0  0
    0.0000   -2.4750    0.0000 N   0  0  0  0  0  0  0  0  0  0  0  0
    0.0000   -1.6500    0.0000 C   0  0  0  0  0  0  0  0  0  0  0  0
    0.7145   -1.2375    0.0000 N   0  0  0  0  0  0  0  0  0  0  0  0
    0.7145   -0.4125    0.0000 C   0  0  0  0  0  0  0  0  0  0  0  0
    0.0000    0.0000    0.0000 C   0  0  0  0  0  0  0  0  0  0  0  0
    0.0000    0.8250    0.0000 C   0  0  0  0  0  0  0  0  0  0  0  0
    0.7145    1.2375    0.0000 C   0  0  0  0  0  0  0  0  0  0  0  0
    1.4289    0.8250    0.0000 C   0  0  0  0  0  0  0  0  0  0  0  0
    1.4289    0.0000    0.0000 C   0  0  0  0  0  0  0  0  0  0  0  0
    2.1434   -0.4125    0.0000 O   0  0  0  0  0  0  0  0  0  0  0  0
    2.1434   -1.2375    0.0000 C   0  0  0  0  0  0  0  0  0  0  0  0
    0.5429    2.0445    0.0000 C   0  0  0  0  0  0  0  0  0  0  0  0
   -0.2775    2.1307    0.0000 C   0  0  0  0  0  0  0  0  0  0  0  0
   -0.6131    1.3770    0.0000 N   0  0  0  0  0  0  0  0  0  0  0  0
   -1.4201    1.2055    0.0000 C   0  0  0  0  0  0  0  0  0  0  0  0
   -1.9721    1.8186    0.0000 O   0  0  0  0  0  0  0  0  0  0  0  0
   -1.6750    0.4209    0.0000 C   0  0  0  0  0  0  0  0  0  0  0  0
   -2.4820    0.2494    0.0000 N   0  0  0  0  0  0  0  0  0  0  0  0
   -3.0340    0.8625    0.0000 C   0  0  0  0  0  0  0  0  0  0  0  0
   -2.7369   -0.5353    0.0000 C   0  0  0  0  0  0  0  0  0  0  0  0
   -0.7145   -1.2375    0.0000 N   0  0  0  0  0  0  0  0  0  0  0  0
   -1.4289   -1.6500    0.0000 C   0  0  0  0  0  0  0  0  0  0  0  0
   -1.4289   -2.4750    0.0000 C   0  0  0  0  0  0  0  0  0  0  0  0
   -2.2136   -2.7299    0.0000 C   0  0  0  0  0  0  0  0  0  0  0  0
   -2.6985   -2.0625    0.0000 C   0  0  0  0  0  0  0  0  0  0  0  0
   -2.2136   -1.3951    0.0000 N   0  0  0  0  0  0  0  0  0  0  0  0
  1  2  1  0  0  0  0
  2  3  1  0  0  0  0
  3  4  2  0  0  0  0
  3  5  1  0  0  0  0
  5  6  4  0  0  0  0
  6  7  4  0  0  0  0
  7  8  4  0  0  0  0
  8  9  4  0  0  0  0
  9 10  4  0  0  0  0
  5 10  4  0  0  0  0
 10 11  1  0  0  0  0
  6 12  1  0  0  0  0
 12 13  1  0  0  0  0
 13 14  4  0  0  0  0
 14 15  4  0  0  0  0
 15 16  1  0  0  0  0
 16 17  1  0  0  0  0
 17 18  4  0  0  0  0
 18 19  4  0  0  0  0
 19 20  4  0  0  0  0
 20 21  4  0  0  0  0
 21 22  4  0  0  0  0
 17 22  4  0  0  0  0
 22 23  1  0  0  0  0
 23 24  1  0  0  0  0
 20 25  1  0  0  0  0
 25 26  1  0  0  0  0
 26 27  1  0  0  0  0
 19 27  1  0  0  0  0
 27 28  1  0  0  0  0
 28 29  2  0  0  0  0
 28 30  1  0  0  0  0
 30 31  1  0  0  0  0
 31 32  1  0  0  0  0
 31 33  1  0  0  0  0
 15 34  4  0  0  0  0
 34 35  4  0  0  0  0
 35 36  4  0  0  0  0
 13 36  4  0  0  0  0
 36 37  4  0  0  0  0
 37 38  4  0  0  0  0
 38 39  4  0  0  0  0
 35 39  4  0  0  0  0
M  STY  1   1 DAT
M  SAL   1  1  39
M  SDT   1 MRV_IMPLICIT_H                                        
M  SDD   1     0.0000    0.0000    DR    ALL  0       0  
M  SED   1 IMPL_H1
M  END
>  <version_id> [MProp:scalar:integer]
43366928

$$$$

  Mrv0541 04011510472D          

 30 33  0  0  0  0            999 V2000
   -2.1434   -3.7125    0.0000 O   0  0  0  0  0  0  0  0  0  0  0  0
   -1.4289   -4.1250    0.0000 C   0  0  0  0  0  0  0  0  0  0  0  0
   -1.4289   -4.9500    0.0000 N   0  0  0  0  0  0  0  0  0  0  0  0
   -0.7615   -5.4349    0.0000 C   0  0  0  0  0  0  0  0  0  0  0  0
   -1.0164   -6.2195    0.0000 C   0  0  0  0  0  0  0  0  0  0  0  0
   -1.8414   -6.2195    0.0000 C   0  0  0  0  0  0  0  0  0  0  0  0
   -2.0964   -5.4349    0.0000 C   0  0  0  0  0  0  0  0  0  0  0  0
   -0.7145   -3.7125    0.0000 N   0  0  0  0  0  0  0  0  0  0  0  0
   -0.7145   -2.8875    0.0000 C   0  0  0  0  0  0  0  0  0  0  0  0
   -1.4289   -2.4750    0.0000 C   0  0  0  0  0  0  0  0  0  0  0  0
   -1.4289   -1.6500    0.0000 C   0  0  0  0  0  0  0  0  0  0  0  0
   -0.7145   -1.2375    0.0000 C   0  0  0  0  0  0  0  0  0  0  0  0
    0.0000   -1.6500    0.0000 C   0  0  0  0  0  0  0  0  0  0  0  0
    0.0000   -2.4750    0.0000 C   0  0  0  0  0  0  0  0  0  0  0  0
    0.7145   -1.2375    0.0000 N   0  0  0  0  0  0  0  0  0  0  0  0
    0.7145   -0.4125    0.0000 C   0  0  0  0  0  0  0  0  0  0  0  0
    0.0000    0.0000    0.0000 N   0  0  0  0  0  0  0  0  0  0  0  0
    0.0000    0.8250    0.0000 C   0  0  0  0  0  0  0  0  0  0  0  0
    0.7145    1.2375    0.0000 C   0  0  0  0  0  0  0  0  0  0  0  0
    1.4289    0.8250    0.0000 C   0  0  0  0  0  0  0  0  0  0  0  0
    1.4289    0.0000    0.0000 N   0  0  0  0  0  0  0  0  0  0  0  0
    2.1434    1.2375    0.0000 N   0  0  0  0  0  0  0  0  0  0  0  0
    2.8579    0.8250    0.0000 C   0  0  0  0  0  0  0  0  0  0  0  0
    3.5724    1.2375    0.0000 C   0  0  0  0  0  0  0  0  0  0  0  0
    3.5724    2.0625    0.0000 C   0  0  0  0  0  0  0  0  0  0  0  0
    2.9049    2.5474    0.0000 C   0  0  0  0  0  0  0  0  0  0  0  0
    3.1599    3.3320    0.0000 N   0  0  0  0  0  0  0  0  0  0  0  0
    3.9849    3.3320    0.0000 C   0  0  0  0  0  0  0  0  0  0  0  0
    4.2398    2.5474    0.0000 N   0  0  0  0  0  0  0  0  0  0  0  0
    0.7145    2.0625    0.0000 Br  0  0  0  0  0  0  0  0  0  0  0  0
  1  2  2  0  0  0  0
  2  3  1  0  0  0  0
  3  4  1  0  0  0  0
  4  5  1  0  0  0  0
  5  6  1  0  0  0  0
  6  7  1  0  0  0  0
  3  7  1  0  0  0  0
  2  8  1  0  0  0  0
  8  9  1  0  0  0  0
  9 10  4  0  0  0  0
 10 11  4  0  0  0  0
 11 12  4  0  0  0  0
 12 13  4  0  0  0  0
 13 14  4  0  0  0  0
  9 14  4  0  0  0  0
 13 15  1  0  0  0  0
 15 16  1  0  0  0  0
 16 17  4  0  0  0  0
 17 18  4  0  0  0  0
 18 19  4  0  0  0  0
 19 20  4  0  0  0  0
 20 21  4  0  0  0  0
 16 21  4  0  0  0  0
 20 22  1  0  0  0  0
 22 23  1  0  0  0  0
 23 24  1  0  0  0  0
 24 25  1  0  0  0  0
 25 26  4  0  0  0  0
 26 27  4  0  0  0  0
 27 28  4  0  0  0  0
 28 29  4  0  0  0  0
 25 29  4  0  0  0  0
 19 30  1  0  0  0  0
M  STY  1   1 DAT
M  SAL   1  1  29
M  SDT   1 MRV_IMPLICIT_H                                        
M  SDD   1     0.0000    0.0000    DR    ALL  0       0  
M  SED   1 IMPL_H1
M  END
>  <version_id> [MProp:scalar:integer]
44786254

$$$$

  Mrv0541 04011510472D          

 22 24  0  0  0  0            999 V2000
    4.2868    0.8250    0.0000 C   0  0  0  0  0  0  0  0  0  0  0  0
    4.2868    0.0000    0.0000 N   0  0  0  0  0  0  0  0  0  0  0  0
    5.0013   -0.4125    0.0000 C   0  0  0  0  0  0  0  0  0  0  0  0
    5.0013   -1.2375    0.0000 C   0  0  0  0  0  0  0  0  0  0  0  0
    4.2868   -1.6500    0.0000 N   0  0  0  0  0  0  0  0  0  0  0  0
    3.5724   -1.2375    0.0000 C   0  0  0  0  0  0  0  0  0  0  0  0
    3.5724   -0.4125    0.0000 C   0  0  0  0  0  0  0  0  0  0  0  0
    4.2868   -2.4750    0.0000 C   0  0  0  0  0  0  0  0  0  0  0  0
    5.0013   -2.8875    0.0000 C   0  0  0  0  0  0  0  0  0  0  0  0
    5.0013   -3.7125    0.0000 C   0  0  0  0  0  0  0  0  0  0  0  0
    4.2868   -4.1250    0.0000 C   0  0  0  0  0  0  0  0  0  0  0  0
    3.5724   -3.7125    0.0000 C   0  0  0  0  0  0  0  0  0  0  0  0
    3.5724   -2.8875    0.0000 C   0  0  0  0  0  0  0  0  0  0  0  0
    2.8579   -4.1250    0.0000 N   0  0  0  0  0  0  0  0  0  0  0  0
    2.1434   -3.7125    0.0000 C   0  0  0  0  0  0  0  0  0  0  0  0
    1.4289   -4.1250    0.0000 N   0  0  0  0  0  0  0  0  0  0  0  0
    0.7145   -3.7125    0.0000 C   0  0  0  0  0  0  0  0  0  0  0  0
    0.7145   -2.8875    0.0000 C   0  0  0  0  0  0  0  0  0  0  0  0
    1.4289   -2.4750    0.0000 C   0  0  0  0  0  0  0  0  0  0  0  0
    2.1434   -2.8875    0.0000 N   0  0  0  0  0  0  0  0  0  0  0  0
    1.4289   -1.6500    0.0000 Cl  0  0  0  0  0  0  0  0  0  0  0  0
    0.0000   -2.4750    0.0000 C   0  0  0  0  0  0  0  0  0  0  0  0
  1  2  1  0  0  0  0
  2  3  1  0  0  0  0
  3  4  1  0  0  0  0
  4  5  1  0  0  0  0
  5  6  1  0  0  0  0
  6  7  1  0  0  0  0
  2  7  1  0  0  0  0
  5  8  1  0  0  0  0
  8  9  4  0  0  0  0
  9 10  4  0  0  0  0
 10 11  4  0  0  0  0
 11 12  4  0  0  0  0
 12 13  4  0  0  0  0
  8 13  4  0  0  0  0
 12 14  1  0  0  0  0
 14 15  1  0  0  0  0
 15 16  4  0  0  0  0
 16 17  4  0  0  0  0
 17 18  4  0  0  0  0
 18 19  4  0  0  0  0
 19 20  4  0  0  0  0
 15 20  4  0  0  0  0
 19 21  1  0  0  0  0
 18 22  1  0  0  0  0
M  END
>  <version_id> [MProp:scalar:integer]
44846263

$$$$

  Mrv0541 04011510472D          

 24 27  0  0  0  0            999 V2000
    9.0681    3.5854    0.0000 C   0  0  0  0  0  0  0  0  0  0  0  0
    8.3536    3.1729    0.0000 N   0  0  0  0  0  0  0  0  0  0  0  0
    8.3536    2.3479    0.0000 C   0  0  0  0  0  0  0  0  0  0  0  0
    7.6391    1.9354    0.0000 C   0  0  0  0  0  0  0  0  0  0  0  0
    6.9246    2.3479    0.0000 N   0  0  0  0  0  0  0  0  0  0  0  0
    6.9246    3.1729    0.0000 C   0  0  0  0  0  0  0  0  0  0  0  0
    7.6391    3.5854    0.0000 C   0  0  0  0  0  0  0  0  0  0  0  0
    6.2102    1.9354    0.0000 C   0  0  0  0  0  0  0  0  0  0  0  0
    6.2102    1.1104    0.0000 C   0  0  0  0  0  0  0  0  0  0  0  0
    5.4957    0.6979    0.0000 C   0  0  0  0  0  0  0  0  0  0  0  0
    4.7812    1.1104    0.0000 C   0  0  0  0  0  0  0  0  0  0  0  0
    4.7812    1.9354    0.0000 C   0  0  0  0  0  0  0  0  0  0  0  0
    5.4957    2.3479    0.0000 C   0  0  0  0  0  0  0  0  0  0  0  0
    4.0668    2.3479    0.0000 N   0  0  0  0  0  0  0  0  0  0  0  0
    3.3523    1.9354    0.0000 C   0  0  0  0  0  0  0  0  0  0  0  0
    3.3523    1.1104    0.0000 N   0  0  0  0  0  0  0  0  0  0  0  0
    2.6378    0.6979    0.0000 C   0  0  0  0  0  0  0  0  0  0  0  0
    2.6378   -0.1271    0.0000 Cl  0  0  0  0  0  0  0  0  0  0  0  0
    1.9233    1.1104    0.0000 C   0  0  0  0  0  0  0  0  0  0  0  0
    1.9233    1.9354    0.0000 C   0  0  0  0  0  0  0  0  0  0  0  0
    2.6378    2.3479    0.0000 N   0  0  0  0  0  0  0  0  0  0  0  0
    1.1387    2.1904    0.0000 N   0  0  0  0  0  0  0  0  0  0  0  0
    0.6538    1.5229    0.0000 C   0  0  0  0  0  0  0  0  0  0  0  0
    1.1387    0.8555    0.0000 C   0  0  0  0  0  0  0  0  0  0  0  0
  1  2  1  0  0  0  0
  2  3  1  0  0  0  0
  3  4  1  0  0  0  0
  4  5  1  0  0  0  0
  5  6  1  0  0  0  0
  6  7  1  0  0  0  0
  2  7  1  0  0  0  0
  5  8  1  0  0  0  0
  8  9  4  0  0  0  0
  9 10  4  0  0  0  0
 10 11  4  0  0  0  0
 11 12  4  0  0  0  0
 12 13  4  0  0  0  0
  8 13  4  0  0  0  0
 12 14  1  0  0  0  0
 14 15  1  0  0  0  0
 15 16  4  0  0  0  0
 16 17  4  0  0  0  0
 17 18  1  0  0  0  0
 17 19  4  0  0  0  0
 19 20  4  0  0  0  0
 20 21  4  0  0  0  0
 15 21  4  0  0  0  0
 20 22  4  0  0  0  0
 22 23  4  0  0  0  0
 23 24  4  0  0  0  0
 19 24  4  0  0  0  0
M  STY  1   1 DAT
M  SAL   1  1  22
M  SDT   1 MRV_IMPLICIT_H                                        
M  SDD   1     0.0000    0.0000    DR    ALL  0       0  
M  SED   1 IMPL_H1
M  END
>  <version_id> [MProp:scalar:integer]
44846251

$$$$

  Mrv0541 04011510472D          

 30 32  0  0  0  0            999 V2000
    1.7309   -7.1230    0.0000 C   0  0  0  0  0  0  0  0  0  0  0  0
    2.1434   -7.8375    0.0000 C   0  0  0  0  0  0  0  0  0  0  0  0
    2.9684   -7.8375    0.0000 O   0  0  0  0  0  0  0  0  0  0  0  0
    3.3809   -8.5520    0.0000 C   0  0  0  0  0  0  0  0  0  0  0  0
    2.9684   -9.2664    0.0000 C   0  0  0  0  0  0  0  0  0  0  0  0
    3.3809   -9.9809    0.0000 C   0  0  0  0  0  0  0  0  0  0  0  0
    4.2059   -9.9809    0.0000 C   0  0  0  0  0  0  0  0  0  0  0  0
    4.6184   -9.2664    0.0000 N   0  0  0  0  0  0  0  0  0  0  0  0
    4.6184  -10.6954    0.0000 N   0  0  0  0  0  0  0  0  0  0  0  0
    4.2059  -11.4099    0.0000 C   0  0  0  0  0  0  0  0  0  0  0  0
    3.3809  -11.4099    0.0000 N   0  0  0  0  0  0  0  0  0  0  0  0
    2.9684  -10.6954    0.0000 C   0  0  0  0  0  0  0  0  0  0  0  0
    2.1434  -10.6954    0.0000 O   0  0  0  0  0  0  0  0  0  0  0  0
    4.6184  -12.1243    0.0000 N   0  0  0  0  0  0  0  0  0  0  0  0
    5.4434  -12.1243    0.0000 C   0  0  0  0  0  0  0  0  0  0  0  0
    5.8559  -11.4099    0.0000 C   0  0  0  0  0  0  0  0  0  0  0  0
    6.6809  -11.4099    0.0000 C   0  0  0  0  0  0  0  0  0  0  0  0
    7.0934  -12.1243    0.0000 C   0  0  0  0  0  0  0  0  0  0  0  0
    6.6809  -12.8388    0.0000 C   0  0  0  0  0  0  0  0  0  0  0  0
    5.8559  -12.8388    0.0000 C   0  0  0  0  0  0  0  0  0  0  0  0
    7.0934  -13.5533    0.0000 N   0  0  0  0  0  0  0  0  0  0  0  0
    7.9184  -13.5533    0.0000 C   0  0  0  0  0  0  0  0  0  0  0  0
    8.3309  -14.2677    0.0000 C   0  0  0  0  0  0  0  0  0  0  0  0
    7.9184  -14.9822    0.0000 N   0  0  0  0  0  0  0  0  0  0  0  0
    7.0934  -14.9822    0.0000 C   0  0  0  0  0  0  0  0  0  0  0  0
    6.6809  -14.2677    0.0000 C   0  0  0  0  0  0  0  0  0  0  0  0
    8.3309  -15.6967    0.0000 C   0  0  0  0  0  0  0  0  0  0  0  0
    4.2059   -8.5520    0.0000 O   0  0  0  0  0  0  0  0  0  0  0  0
    4.6184   -7.8375    0.0000 C   0  0  0  0  0  0  0  0  0  0  0  0
    5.4434   -7.8375    0.0000 C   0  0  0  0  0  0  0  0  0  0  0  0
  1  2  1  0  0  0  0
  2  3  1  0  0  0  0
  3  4  1  0  0  0  0
  4  5  1  0  0  0  0
  5  6  1  0  0  0  0
  6  7  4  0  0  0  0
  7  8  1  0  0  0  0
  7  9  4  0  0  0  0
  9 10  4  0  0  0  0
 10 11  4  0  0  0  0
 11 12  4  0  0  0  0
  6 12  4  0  0  0  0
 12 13  2  0  0  0  0
 10 14  1  0  0  0  0
 14 15  1  0  0  0  0
 15 16  4  0  0  0  0
 16 17  4  0  0  0  0
 17 18  4  0  0  0  0
 18 19  4  0  0  0  0
 19 20  4  0  0  0  0
 15 20  4  0  0  0  0
 19 21  1  0  0  0  0
 21 22  1  0  0  0  0
 22 23  1  0  0  0  0
 23 24  1  0  0  0  0
 24 25  1  0  0  0  0
 25 26  1  0  0  0  0
 21 26  1  0  0  0  0
 24 27  1  0  0  0  0
  4 28  1  0  0  0  0
 28 29  1  0  0  0  0
 29 30  1  0  0  0  0
M  STY  1   1 DAT
M  SAL   1  1  11
M  SDT   1 MRV_IMPLICIT_H                                        
M  SDD   1     0.0000    0.0000    DR    ALL  0       0  
M  SED   1 IMPL_H1
M  END
>  <version_id> [MProp:scalar:integer]
44846996

$$$$

  Mrv0541 04011510472D          

 24 27  0  0  0  0            999 V2000
    9.0681    3.5854    0.0000 C   0  0  0  0  0  0  0  0  0  0  0  0
    8.3536    3.1729    0.0000 N   0  0  0  0  0  0  0  0  0  0  0  0
    8.3536    2.3479    0.0000 C   0  0  0  0  0  0  0  0  0  0  0  0
    7.6391    1.9354    0.0000 C   0  0  0  0  0  0  0  0  0  0  0  0
    6.9246    2.3479    0.0000 N   0  0  0  0  0  0  0  0  0  0  0  0
    6.9246    3.1729    0.0000 C   0  0  0  0  0  0  0  0  0  0  0  0
    7.6391    3.5854    0.0000 C   0  0  0  0  0  0  0  0  0  0  0  0
    6.2102    1.9354    0.0000 C   0  0  0  0  0  0  0  0  0  0  0  0
    6.2102    1.1104    0.0000 C   0  0  0  0  0  0  0  0  0  0  0  0
    5.4957    0.6979    0.0000 C   0  0  0  0  0  0  0  0  0  0  0  0
    4.7812    1.1104    0.0000 C   0  0  0  0  0  0  0  0  0  0  0  0
    4.7812    1.9354    0.0000 C   0  0  0  0  0  0  0  0  0  0  0  0
    5.4957    2.3479    0.0000 C   0  0  0  0  0  0  0  0  0  0  0  0
    4.0668    2.3479    0.0000 N   0  0  0  0  0  0  0  0  0  0  0  0
    3.3523    1.9354    0.0000 C   0  0  0  0  0  0  0  0  0  0  0  0
    3.3523    1.1104    0.0000 N   0  0  0  0  0  0  0  0  0  0  0  0
    2.6378    0.6979    0.0000 C   0  0  0  0  0  0  0  0  0  0  0  0
    2.6378   -0.1271    0.0000 O   0  0  0  0  0  0  0  0  0  0  0  0
    1.9233    1.1104    0.0000 C   0  0  0  0  0  0  0  0  0  0  0  0
    1.9233    1.9354    0.0000 C   0  0  0  0  0  0  0  0  0  0  0  0
    2.6378    2.3479    0.0000 N   0  0  0  0  0  0  0  0  0  0  0  0
    1.1387    2.1904    0.0000 N   0  0  0  0  0  0  0  0  0  0  0  0
    0.6538    1.5229    0.0000 C   0  0  0  0  0  0  0  0  0  0  0  0
    1.1387    0.8555    0.0000 C   0  0  0  0  0  0  0  0  0  0  0  0
  1  2  1  0  0  0  0
  2  3  1  0  0  0  0
  3  4  1  0  0  0  0
  4  5  1  0  0  0  0
  5  6  1  0  0  0  0
  6  7  1  0  0  0  0
  2  7  1  0  0  0  0
  5  8  1  0  0  0  0
  8  9  4  0  0  0  0
  9 10  4  0  0  0  0
 10 11  4  0  0  0  0
 11 12  4  0  0  0  0
 12 13  4  0  0  0  0
  8 13  4  0  0  0  0
 12 14  1  0  0  0  0
 14 15  1  0  0  0  0
 15 16  4  0  0  0  0
 16 17  4  0  0  0  0
 17 18  2  0  0  0  0
 17 19  4  0  0  0  0
 19 20  4  0  0  0  0
 20 21  4  0  0  0  0
 15 21  4  0  0  0  0
 20 22  4  0  0  0  0
 22 23  4  0  0  0  0
 23 24  4  0  0  0  0
 19 24  4  0  0  0  0
M  STY  2   1 DAT   2 DAT
M  SAL   1  1  16
M  SDT   1 MRV_IMPLICIT_H                                        
M  SDD   1     0.0000    0.0000    DR    ALL  0       0  
M  SED   1 IMPL_H1
M  SAL   2  1  22
M  SDT   2 MRV_IMPLICIT_H                                        
M  SDD   2     0.0000    0.0000    DR    ALL  0       0  
M  SED   2 IMPL_H1
M  END
>  <version_id> [MProp:scalar:integer]
44846998

$$$$

  Mrv0541 04011510472D          

 22 24  0  0  0  0            999 V2000
    4.2868    0.8250    0.0000 C   0  0  0  0  0  0  0  0  0  0  0  0
    4.2868    0.0000    0.0000 N   0  0  0  0  0  0  0  0  0  0  0  0
    5.0013   -0.4125    0.0000 C   0  0  0  0  0  0  0  0  0  0  0  0
    5.0013   -1.2375    0.0000 C   0  0  0  0  0  0  0  0  0  0  0  0
    4.2868   -1.6500    0.0000 N   0  0  0  0  0  0  0  0  0  0  0  0
    3.5724   -1.2375    0.0000 C   0  0  0  0  0  0  0  0  0  0  0  0
    3.5724   -0.4125    0.0000 C   0  0  0  0  0  0  0  0  0  0  0  0
    4.2868   -2.4750    0.0000 C   0  0  0  0  0  0  0  0  0  0  0  0
    5.0013   -2.8875    0.0000 C   0  0  0  0  0  0  0  0  0  0  0  0
    5.0013   -3.7125    0.0000 C   0  0  0  0  0  0  0  0  0  0  0  0
    4.2868   -4.1250    0.0000 C   0  0  0  0  0  0  0  0  0  0  0  0
    3.5724   -3.7125    0.0000 C   0  0  0  0  0  0  0  0  0  0  0  0
    3.5724   -2.8875    0.0000 C   0  0  0  0  0  0  0  0  0  0  0  0
    2.8579   -4.1250    0.0000 N   0  0  0  0  0  0  0  0  0  0  0  0
    2.1434   -3.7125    0.0000 C   0  0  0  0  0  0  0  0  0  0  0  0
    1.4289   -4.1250    0.0000 N   0  0  0  0  0  0  0  0  0  0  0  0
    0.7145   -3.7125    0.0000 C   0  0  0  0  0  0  0  0  0  0  0  0
    0.7145   -2.8875    0.0000 C   0  0  0  0  0  0  0  0  0  0  0  0
    1.4289   -2.4750    0.0000 C   0  0  0  0  0  0  0  0  0  0  0  0
    1.4289   -1.6500    0.0000 O   0  0  0  0  0  0  0  0  0  0  0  0
    2.1434   -2.8875    0.0000 N   0  0  0  0  0  0  0  0  0  0  0  0
    0.0000   -2.4750    0.0000 C   0  0  0  0  0  0  0  0  0  0  0  0
  1  2  1  0  0  0  0
  2  3  1  0  0  0  0
  3  4  1  0  0  0  0
  4  5  1  0  0  0  0
  5  6  1  0  0  0  0
  6  7  1  0  0  0  0
  2  7  1  0  0  0  0
  5  8  1  0  0  0  0
  8  9  4  0  0  0  0
  9 10  4  0  0  0  0
 10 11  4  0  0  0  0
 11 12  4  0  0  0  0
 12 13  4  0  0  0  0
  8 13  4  0  0  0  0
 12 14  1  0  0  0  0
 14 15  1  0  0  0  0
 15 16  4  0  0  0  0
 16 17  4  0  0  0  0
 17 18  4  0  0  0  0
 18 19  4  0  0  0  0
 19 20  2  0  0  0  0
 19 21  4  0  0  0  0
 15 21  4  0  0  0  0
 18 22  1  0  0  0  0
M  STY  1   1 DAT
M  SAL   1  1  21
M  SDT   1 MRV_IMPLICIT_H                                        
M  SDD   1     0.0000    0.0000    DR    ALL  0       0  
M  SED   1 IMPL_H1
M  END
>  <version_id> [MProp:scalar:integer]
44847072

$$$$

  Mrv0541 04011510472D          

 42 46  0  0  1  0            999 V2000
    1.4289   -7.4250    0.0000 C   0  0  0  0  0  0  0  0  0  0  0  0
    0.7145   -7.8375    0.0000 N   0  0  0  0  0  0  0  0  0  0  0  0
    0.7145   -8.6625    0.0000 C   0  0  1  0  0  0  0  0  0  0  0  0
    1.3819   -9.1474    0.0000 C   0  0  0  0  0  0  0  0  0  0  0  0
    1.1270   -9.9320    0.0000 C   0  0  0  0  0  0  0  0  0  0  0  0
    0.3020   -9.9320    0.0000 N   0  0  0  0  0  0  0  0  0  0  0  0
    0.0470   -9.1474    0.0000 C   0  0  0  0  0  0  0  0  0  0  0  0
   -0.1830  -10.5995    0.0000 C   0  0  0  0  0  0  0  0  0  0  0  0
   -1.0034  -10.5132    0.0000 C   0  0  0  0  0  0  0  0  0  0  0  0
   -1.4884  -11.1807    0.0000 C   0  0  0  0  0  0  0  0  0  0  0  0
   -2.3088  -11.0945    0.0000 C   0  0  0  0  0  0  0  0  0  0  0  0
   -2.6444  -10.3408    0.0000 C   0  0  0  0  0  0  0  0  0  0  0  0
   -2.1595   -9.6733    0.0000 C   0  0  0  0  0  0  0  0  0  0  0  0
   -1.3390   -9.7596    0.0000 C   0  0  0  0  0  0  0  0  0  0  0  0
   -0.8541   -9.0921    0.0000 C   0  0  0  0  0  0  0  0  0  0  0  0
   -0.3691   -8.4247    0.0000 F   0  0  0  0  0  0  0  0  0  0  0  0
   -0.1866   -9.5771    0.0000 F   0  0  0  0  0  0  0  0  0  0  0  0
   -1.5215   -8.6072    0.0000 F   0  0  0  0  0  0  0  0  0  0  0  0
   -3.4649  -10.2545    0.0000 C   0  0  0  0  0  0  0  0  0  0  0  0
   -3.8004   -9.5009    0.0000 O   0  0  0  0  0  0  0  0  0  0  0  0
   -3.9498  -10.9220    0.0000 N   0  0  0  0  0  0  0  0  0  0  0  0
   -3.6142  -11.6757    0.0000 C   0  0  0  0  0  0  0  0  0  0  0  0
   -2.7938  -11.7619    0.0000 C   0  0  0  0  0  0  0  0  0  0  0  0
   -2.4582  -12.5156    0.0000 C   0  0  0  0  0  0  0  0  0  0  0  0
   -2.9431  -13.1830    0.0000 C   0  0  0  0  0  0  0  0  0  0  0  0
   -3.7636  -13.0968    0.0000 C   0  0  0  0  0  0  0  0  0  0  0  0
   -4.0992  -12.3431    0.0000 C   0  0  0  0  0  0  0  0  0  0  0  0
   -4.2485  -13.7642    0.0000 N   0  0  0  0  0  0  0  0  0  0  0  0
   -3.9130  -14.5179    0.0000 C   0  0  0  0  0  0  0  0  0  0  0  0
   -3.0925  -14.6041    0.0000 N   0  0  0  0  0  0  0  0  0  0  0  0
   -2.7569  -15.3578    0.0000 C   0  0  0  0  0  0  0  0  0  0  0  0
   -3.2419  -16.0252    0.0000 C   0  0  0  0  0  0  0  0  0  0  0  0
   -4.0623  -15.9390    0.0000 C   0  0  0  0  0  0  0  0  0  0  0  0
   -4.3979  -15.1853    0.0000 N   0  0  0  0  0  0  0  0  0  0  0  0
   -4.5473  -16.6064    0.0000 C   0  0  0  0  0  0  0  0  0  0  0  0
   -4.2117  -17.3601    0.0000 C   0  0  0  0  0  0  0  0  0  0  0  0
   -4.6966  -18.0275    0.0000 N   0  0  0  0  0  0  0  0  0  0  0  0
   -5.5171  -17.9413    0.0000 C   0  0  0  0  0  0  0  0  0  0  0  0
   -5.8527  -17.1876    0.0000 N   0  0  0  0  0  0  0  0  0  0  0  0
   -5.3677  -16.5202    0.0000 C   0  0  0  0  0  0  0  0  0  0  0  0
   -2.6076  -13.9367    0.0000 C   0  0  0  0  0  0  0  0  0  0  0  0
    0.0000   -7.4250    0.0000 C   0  0  0  0  0  0  0  0  0  0  0  0
  1  2  1  0  0  0  0
  3  2  1  1  0  0  0
  3  4  1  0  0  0  0
  4  5  1  0  0  0  0
  5  6  1  0  0  0  0
  6  7  1  0  0  0  0
  3  7  1  0  0  0  0
  6  8  1  0  0  0  0
  8  9  1  0  0  0  0
  9 10  4  0  0  0  0
 10 11  4  0  0  0  0
 11 12  4  0  0  0  0
 12 13  4  0  0  0  0
 13 14  4  0  0  0  0
  9 14  4  0  0  0  0
 14 15  1  0  0  0  0
 15 16  1  0  0  0  0
 15 17  1  0  0  0  0
 15 18  1  0  0  0  0
 12 19  1  0  0  0  0
 19 20  2  0  0  0  0
 19 21  1  0  0  0  0
 21 22  1  0  0  0  0
 22 23  4  0  0  0  0
 23 24  4  0  0  0  0
 24 25  4  0  0  0  0
 25 26  4  0  0  0  0
 26 27  4  0  0  0  0
 22 27  4  0  0  0  0
 26 28  1  0  0  0  0
 28 29  1  0  0  0  0
 29 30  4  0  0  0  0
 30 31  4  0  0  0  0
 31 32  4  0  0  0  0
 32 33  4  0  0  0  0
 33 34  4  0  0  0  0
 29 34  4  0  0  0  0
 33 35  1  0  0  0  0
 35 36  4  0  0  0  0
 36 37  4  0  0  0  0
 37 38  4  0  0  0  0
 38 39  4  0  0  0  0
 39 40  4  0  0  0  0
 35 40  4  0  0  0  0
 25 41  1  0  0  0  0
  2 42  1  0  0  0  0
M  END
>  <version_id> [MProp:scalar:integer]
46024442

$$$$

  Mrv0541 04011510472D          

 18 19  0  0  0  0            999 V2000
   -0.7145   -0.4125    0.0000 Br  0  0  0  0  0  0  0  0  0  0  0  0
   -0.7145   -1.2375    0.0000 C   0  0  0  0  0  0  0  0  0  0  0  0
    0.0000   -1.6500    0.0000 C   0  0  0  0  0  0  0  0  0  0  0  0
    0.0000   -2.4750    0.0000 N   0  0  0  0  0  0  0  0  0  0  0  0
   -0.7145   -2.8875    0.0000 C   0  0  0  0  0  0  0  0  0  0  0  0
   -1.4289   -2.4750    0.0000 N   0  0  0  0  0  0  0  0  0  0  0  0
   -1.4289   -1.6500    0.0000 C   0  0  0  0  0  0  0  0  0  0  0  0
   -0.7145   -3.7125    0.0000 N   0  0  0  0  0  0  0  0  0  0  0  0
    0.0000   -4.1250    0.0000 C   0  0  0  0  0  0  0  0  0  0  0  0
    0.7145   -3.7125    0.0000 C   0  0  0  0  0  0  0  0  0  0  0  0
    1.4289   -4.1250    0.0000 C   0  0  0  0  0  0  0  0  0  0  0  0
    1.4289   -4.9500    0.0000 C   0  0  0  0  0  0  0  0  0  0  0  0
    0.7145   -5.3625    0.0000 C   0  0  0  0  0  0  0  0  0  0  0  0
    0.0000   -4.9500    0.0000 C   0  0  0  0  0  0  0  0  0  0  0  0
    0.7145   -6.1875    0.0000 N   0  3  0  0  0  0  0  0  0  0  0  0
    1.4289   -6.6000    0.0000 O   0  0  0  0  0  0  0  0  0  0  0  0
    0.0000   -6.6000    0.0000 O   0  5  0  0  0  0  0  0  0  0  0  0
    2.1434   -5.3625    0.0000 C   0  0  0  0  0  0  0  0  0  0  0  0
  1  2  1  0  0  0  0
  2  3  4  0  0  0  0
  3  4  4  0  0  0  0
  4  5  4  0  0  0  0
  5  6  4  0  0  0  0
  6  7  4  0  0  0  0
  2  7  4  0  0  0  0
  5  8  1  0  0  0  0
  8  9  1  0  0  0  0
  9 10  4  0  0  0  0
 10 11  4  0  0  0  0
 11 12  4  0  0  0  0
 12 13  4  0  0  0  0
 13 14  4  0  0  0  0
  9 14  4  0  0  0  0
 13 15  1  0  0  0  0
 15 16  2  0  0  0  0
 15 17  1  0  0  0  0
 12 18  1  0  0  0  0
M  CHG  2  15   1  17  -1
M  END
>  <version_id> [MProp:scalar:integer]
48551553

$$$$

  Mrv0541 04011510472D          

 21 23  0  0  0  0            999 V2000
    2.1434   -2.8875    0.0000 N   0  0  0  0  0  0  0  0  0  0  0  0
    2.1434   -3.7125    0.0000 C   0  0  0  0  0  0  0  0  0  0  0  0
    2.8579   -4.1250    0.0000 C   0  5  0  0  0  0  0  0  0  0  0  0
    2.8579   -4.9500    0.0000 C   0  5  0  0  0  0  0  0  0  0  0  0
    2.1434   -5.3625    0.0000 C   0  0  0  0  0  0  0  0  0  0  0  0
    1.4289   -4.9500    0.0000 C   0  0  0  0  0  0  0  0  0  0  0  0
    1.4289   -4.1250    0.0000 C   0  5  0  0  0  0  0  0  0  0  0  0
    0.7145   -5.3625    0.0000 N   0  0  0  0  0  0  0  0  0  0  0  0
    0.7145   -6.1875    0.0000 C   0  0  0  0  0  0  0  0  0  0  0  0
    1.4289   -6.6000    0.0000 N   0  0  0  0  0  0  0  0  0  0  0  0
    1.4289   -7.4250    0.0000 C   0  5  0  0  0  0  0  0  0  0  0  0
    0.7145   -7.8375    0.0000 C   0  5  0  0  0  0  0  0  0  0  0  0
    0.0000   -7.4250    0.0000 C   0  0  0  0  0  0  0  0  0  0  0  0
    0.0000   -6.6000    0.0000 N   0  0  0  0  0  0  0  0  0  0  0  0
   -0.7145   -7.8375    0.0000 C   0  0  0  0  0  0  0  0  0  0  0  0
   -0.7145   -8.6625    0.0000 C   0  5  0  0  0  0  0  0  0  0  0  0
   -1.4289   -9.0750    0.0000 C   0  5  0  0  0  0  0  0  0  0  0  0
   -2.1434   -8.6625    0.0000 C   0  5  0  0  0  0  0  0  0  0  0  0
   -2.1434   -7.8375    0.0000 N   0  0  0  0  0  0  0  0  0  0  0  0
   -1.4289   -7.4250    0.0000 C   0  5  0  0  0  0  0  0  0  0  0  0
    2.1434   -6.1875    0.0000 C   0  0  0  0  0  0  0  0  0  0  0  0
  1  2  1  0  0  0  0
  2  3  4  0  0  0  0
  3  4  4  0  0  0  0
  4  5  4  0  0  0  0
  5  6  4  0  0  0  0
  6  7  4  0  0  0  0
  2  7  4  0  0  0  0
  6  8  1  0  0  0  0
  8  9  1  0  0  0  0
  9 10  4  0  0  0  0
 10 11  4  0  0  0  0
 11 12  4  0  0  0  0
 12 13  4  0  0  0  0
 13 14  4  0  0  0  0
  9 14  4  0  0  0  0
 13 15  1  0  0  0  0
 15 16  4  0  0  0  0
 16 17  4  0  0  0  0
 17 18  4  0  0  0  0
 18 19  4  0  0  0  0
 19 20  4  0  0  0  0
 15 20  4  0  0  0  0
  5 21  1  0  0  0  0
M  CHG  8   3  -1   4  -1   7  -1  11  -1  12  -1  16  -1  17  -1  18  -1
M  CHG  1  20  -1
M  END
>  <version_id> [MProp:scalar:integer]
48845541

$$$$

  Mrv0541 04011510472D          

 43 47  0  0  0  0            999 V2000
    5.7158   -7.4250    0.0000 O   0  0  0  0  0  0  0  0  0  0  0  0
    6.4302   -7.8375    0.0000 C   0  0  0  0  0  0  0  0  0  0  0  0
    6.4302   -8.6625    0.0000 N   0  0  0  0  0  0  0  0  0  0  0  0
    7.1447   -9.0750    0.0000 C   0  0  0  0  0  0  0  0  0  0  0  0
    7.1447   -9.9000    0.0000 C   0  0  0  0  0  0  0  0  0  0  0  0
    6.4302  -10.3125    0.0000 N   0  0  0  0  0  0  0  0  0  0  0  0
    5.7158   -9.9000    0.0000 C   0  0  0  0  0  0  0  0  0  0  0  0
    5.7158   -9.0750    0.0000 C   0  0  0  0  0  0  0  0  0  0  0  0
    6.4302  -11.1375    0.0000 C   0  0  0  0  0  0  0  0  0  0  0  0
    7.1447  -11.5500    0.0000 C   0  0  0  0  0  0  0  0  0  0  0  0
    7.8592  -11.1375    0.0000 C   0  5  0  0  0  0  0  0  0  0  0  0
    8.5737  -11.5500    0.0000 C   0  5  0  0  0  0  0  0  0  0  0  0
    8.5737  -12.3750    0.0000 C   0  0  0  0  0  0  0  0  0  0  0  0
    7.8592  -12.7875    0.0000 C   0  5  0  0  0  0  0  0  0  0  0  0
    7.1447  -12.3750    0.0000 C   0  5  0  0  0  0  0  0  0  0  0  0
    9.2881  -12.7875    0.0000 C   0  0  0  0  0  0  0  0  0  0  0  0
   10.0026  -12.3750    0.0000 O   0  0  0  0  0  0  0  0  0  0  0  0
    9.2881  -13.6125    0.0000 N   0  0  0  0  0  0  0  0  0  0  0  0
   10.0026  -14.0250    0.0000 C   0  0  0  0  0  0  0  0  0  0  0  0
   10.7171  -13.6125    0.0000 C   0  5  0  0  0  0  0  0  0  0  0  0
   11.4315  -14.0250    0.0000 C   0  5  0  0  0  0  0  0  0  0  0  0
   11.4315  -14.8500    0.0000 C   0  0  0  0  0  0  0  0  0  0  0  0
   10.7171  -15.2625    0.0000 C   0  0  0  0  0  0  0  0  0  0  0  0
   10.0026  -14.8500    0.0000 C   0  5  0  0  0  0  0  0  0  0  0  0
   10.7171  -16.0875    0.0000 N   0  0  0  0  0  0  0  0  0  0  0  0
   11.4315  -16.5000    0.0000 C   0  0  0  0  0  0  0  0  0  0  0  0
   12.1460  -16.0875    0.0000 N   0  0  0  0  0  0  0  0  0  0  0  0
   12.8605  -16.5000    0.0000 C   0  5  0  0  0  0  0  0  0  0  0  0
   12.8605  -17.3250    0.0000 C   0  5  0  0  0  0  0  0  0  0  0  0
   12.1460  -17.7375    0.0000 C   0  0  0  0  0  0  0  0  0  0  0  0
   11.4315  -17.3250    0.0000 N   0  0  0  0  0  0  0  0  0  0  0  0
   12.1460  -18.5625    0.0000 C   0  0  0  0  0  0  0  0  0  0  0  0
   12.8605  -18.9750    0.0000 C   0  5  0  0  0  0  0  0  0  0  0  0
   12.8605  -19.8000    0.0000 C   0  5  0  0  0  0  0  0  0  0  0  0
   12.1460  -20.2125    0.0000 C   0  5  0  0  0  0  0  0  0  0  0  0
   11.4315  -19.8000    0.0000 N   0  0  0  0  0  0  0  0  0  0  0  0
   11.4315  -18.9750    0.0000 C   0  5  0  0  0  0  0  0  0  0  0  0
   12.1460  -15.2625    0.0000 C   0  0  0  0  0  0  0  0  0  0  0  0
    7.1447   -7.4250    0.0000 O   0  0  0  0  0  0  0  0  0  0  0  0
    7.1447   -6.6000    0.0000 C   0  0  0  0  0  0  0  0  0  0  0  0
    7.1447   -5.7750    0.0000 C   0  0  0  0  0  0  0  0  0  0  0  0
    7.9697   -6.6000    0.0000 C   0  0  0  0  0  0  0  0  0  0  0  0
    6.3197   -6.6000    0.0000 C   0  0  0  0  0  0  0  0  0  0  0  0
  1  2  2  0  0  0  0
  2  3  1  0  0  0  0
  3  4  1  0  0  0  0
  4  5  1  0  0  0  0
  5  6  1  0  0  0  0
  6  7  1  0  0  0  0
  7  8  1  0  0  0  0
  3  8  1  0  0  0  0
  6  9  1  0  0  0  0
  9 10  1  0  0  0  0
 10 11  4  0  0  0  0
 11 12  4  0  0  0  0
 12 13  4  0  0  0  0
 13 14  4  0  0  0  0
 14 15  4  0  0  0  0
 10 15  4  0  0  0  0
 13 16  1  0  0  0  0
 16 17  2  0  0  0  0
 16 18  1  0  0  0  0
 18 19  1  0  0  0  0
 19 20  4  0  0  0  0
 20 21  4  0  0  0  0
 21 22  4  0  0  0  0
 22 23  4  0  0  0  0
 23 24  4  0  0  0  0
 19 24  4  0  0  0  0
 23 25  1  0  0  0  0
 25 26  1  0  0  0  0
 26 27  4  0  0  0  0
 27 28  4  0  0  0  0
 28 29  4  0  0  0  0
 29 30  4  0  0  0  0
 30 31  4  0  0  0  0
 26 31  4  0  0  0  0
 30 32  1  0  0  0  0
 32 33  4  0  0  0  0
 33 34  4  0  0  0  0
 34 35  4  0  0  0  0
 35 36  4  0  0  0  0
 36 37  4  0  0  0  0
 32 37  4  0  0  0  0
 22 38  1  0  0  0  0
  2 39  1  0  0  0  0
 39 40  1  0  0  0  0
 40 41  1  0  0  0  0
 40 42  1  0  0  0  0
 40 43  1  0  0  0  0
M  CHG  8  11  -1  12  -1  14  -1  15  -1  20  -1  21  -1  24  -1  28  -1
M  CHG  5  29  -1  33  -1  34  -1  35  -1  37  -1
M  END
>  <version_id> [MProp:scalar:integer]
48847360

$$$$

  Mrv0541 04011510472D          

 36 40  0  0  0  0            999 V2000
    5.7158   -1.6500    0.0000 C   0  0  0  0  0  0  0  0  0  0  0  0
    5.7158   -2.4750    0.0000 C   0  0  0  0  0  0  0  0  0  0  0  0
    6.4302   -2.8875    0.0000 C   0  5  0  0  0  0  0  0  0  0  0  0
    6.4302   -3.7125    0.0000 C   0  5  0  0  0  0  0  0  0  0  0  0
    5.7158   -4.1250    0.0000 C   0  0  0  0  0  0  0  0  0  0  0  0
    5.0013   -3.7125    0.0000 C   0  5  0  0  0  0  0  0  0  0  0  0
    5.0013   -2.8875    0.0000 C   0  0  0  0  0  0  0  0  0  0  0  0
    4.2868   -2.4750    0.0000 N   0  0  0  0  0  0  0  0  0  0  0  0
    4.2868   -1.6500    0.0000 C   0  0  0  0  0  0  0  0  0  0  0  0
    3.5724   -1.2375    0.0000 N   0  0  0  0  0  0  0  0  0  0  0  0
    3.5724   -0.4125    0.0000 C   0  5  0  0  0  0  0  0  0  0  0  0
    4.2868    0.0000    0.0000 C   0  5  0  0  0  0  0  0  0  0  0  0
    5.0013   -0.4125    0.0000 C   0  0  0  0  0  0  0  0  0  0  0  0
    5.0013   -1.2375    0.0000 N   0  0  0  0  0  0  0  0  0  0  0  0
    5.7158    0.0000    0.0000 C   0  0  0  0  0  0  0  0  0  0  0  0
    5.7158    0.8250    0.0000 C   0  5  0  0  0  0  0  0  0  0  0  0
    6.4302    1.2375    0.0000 C   0  5  0  0  0  0  0  0  0  0  0  0
    7.1447    0.8250    0.0000 C   0  5  0  0  0  0  0  0  0  0  0  0
    7.1447    0.0000    0.0000 N   0  0  0  0  0  0  0  0  0  0  0  0
    6.4302   -0.4125    0.0000 C   0  5  0  0  0  0  0  0  0  0  0  0
    5.7158   -4.9500    0.0000 N   0  0  0  0  0  0  0  0  0  0  0  0
    6.4302   -5.3625    0.0000 C   0  0  0  0  0  0  0  0  0  0  0  0
    7.1447   -4.9500    0.0000 O   0  0  0  0  0  0  0  0  0  0  0  0
    6.4302   -6.1875    0.0000 C   0  0  0  0  0  0  0  0  0  0  0  0
    7.1447   -6.6000    0.0000 C   0  5  0  0  0  0  0  0  0  0  0  0
    7.1447   -7.4250    0.0000 C   0  5  0  0  0  0  0  0  0  0  0  0
    6.4302   -7.8375    0.0000 C   0  0  0  0  0  0  0  0  0  0  0  0
    5.7158   -7.4250    0.0000 C   0  5  0  0  0  0  0  0  0  0  0  0
    5.7158   -6.6000    0.0000 C   0  5  0  0  0  0  0  0  0  0  0  0
    6.4302   -8.6625    0.0000 C   0  0  0  0  0  0  0  0  0  0  0  0
    5.7158   -9.0750    0.0000 N   0  0  0  0  0  0  0  0  0  0  0  0
    5.7158   -9.9000    0.0000 C   0  0  0  0  0  0  0  0  0  0  0  0
    5.0013  -10.3125    0.0000 C   0  0  0  0  0  0  0  0  0  0  0  0
    4.2868   -9.9000    0.0000 N   0  0  0  0  0  0  0  0  0  0  0  0
    4.2868   -9.0750    0.0000 C   0  0  0  0  0  0  0  0  0  0  0  0
    5.0013   -8.6625    0.0000 C   0  0  0  0  0  0  0  0  0  0  0  0
  1  2  1  0  0  0  0
  2  3  4  0  0  0  0
  3  4  4  0  0  0  0
  4  5  4  0  0  0  0
  5  6  4  0  0  0  0
  6  7  4  0  0  0  0
  2  7  4  0  0  0  0
  7  8  1  0  0  0  0
  8  9  1  0  0  0  0
  9 10  4  0  0  0  0
 10 11  4  0  0  0  0
 11 12  4  0  0  0  0
 12 13  4  0  0  0  0
 13 14  4  0  0  0  0
  9 14  4  0  0  0  0
 13 15  1  0  0  0  0
 15 16  4  0  0  0  0
 16 17  4  0  0  0  0
 17 18  4  0  0  0  0
 18 19  4  0  0  0  0
 19 20  4  0  0  0  0
 15 20  4  0  0  0  0
  5 21  1  0  0  0  0
 21 22  1  0  0  0  0
 22 23  2  0  0  0  0
 22 24  1  0  0  0  0
 24 25  4  0  0  0  0
 25 26  4  0  0  0  0
 26 27  4  0  0  0  0
 27 28  4  0  0  0  0
 28 29  4  0  0  0  0
 24 29  4  0  0  0  0
 27 30  1  0  0  0  0
 30 31  1  0  0  0  0
 31 32  1  0  0  0  0
 32 33  1  0  0  0  0
 33 34  1  0  0  0  0
 34 35  1  0  0  0  0
 35 36  1  0  0  0  0
 31 36  1  0  0  0  0
M  CHG  8   3  -1   4  -1   6  -1  11  -1  12  -1  16  -1  17  -1  18  -1
M  CHG  5  20  -1  25  -1  26  -1  28  -1  29  -1
M  END
>  <version_id> [MProp:scalar:integer]
48849798

$$$$

  Mrv0541 04011510472D          

 42 45  0  0  0  0            999 V2000
    0.0000   -0.8250    0.0000 C   0  0  0  0  0  0  0  0  0  0  0  0
    0.0000    0.0000    0.0000 S   0  0  0  0  0  0  0  0  0  0  0  0
    0.0000    0.8250    0.0000 O   0  0  0  0  0  0  0  0  0  0  0  0
    0.8250    0.0000    0.0000 O   0  0  0  0  0  0  0  0  0  0  0  0
   -0.8250    0.0000    0.0000 O   0  0  0  0  0  0  0  0  0  0  0  0
   13.6635    4.1361    0.0000 C   0  0  0  0  0  0  0  0  0  0  0  0
   13.6635    3.3111    0.0000 N   0  0  0  0  0  0  0  0  0  0  0  0
   14.3780    2.8986    0.0000 C   0  0  0  0  0  0  0  0  0  0  0  0
   14.3780    2.0736    0.0000 C   0  0  0  0  0  0  0  0  0  0  0  0
   13.6635    1.6611    0.0000 N   0  0  0  0  0  0  0  0  0  0  0  0
   12.9490    2.0736    0.0000 C   0  0  0  0  0  0  0  0  0  0  0  0
   12.9490    2.8986    0.0000 C   0  0  0  0  0  0  0  0  0  0  0  0
   13.6635    0.8361    0.0000 C   0  0  0  0  0  0  0  0  0  0  0  0
   12.9490    0.4236    0.0000 C   0  0  0  0  0  0  0  0  0  0  0  0
   12.9490   -0.4014    0.0000 C   0  5  0  0  0  0  0  0  0  0  0  0
   12.2346   -0.8139    0.0000 C   0  5  0  0  0  0  0  0  0  0  0  0
   11.5201   -0.4014    0.0000 C   0  0  0  0  0  0  0  0  0  0  0  0
   11.5201    0.4236    0.0000 C   0  5  0  0  0  0  0  0  0  0  0  0
   12.2346    0.8361    0.0000 C   0  5  0  0  0  0  0  0  0  0  0  0
   10.8056   -0.8139    0.0000 C   0  0  0  0  0  0  0  0  0  0  0  0
   10.8056   -1.6389    0.0000 O   0  0  0  0  0  0  0  0  0  0  0  0
   10.0911   -0.4014    0.0000 N   0  0  0  0  0  0  0  0  0  0  0  0
    9.3767   -0.8139    0.0000 C   0  0  0  0  0  0  0  0  0  0  0  0
    9.3767   -1.6389    0.0000 C   0  5  0  0  0  0  0  0  0  0  0  0
    8.6622   -2.0514    0.0000 C   0  5  0  0  0  0  0  0  0  0  0  0
    7.9477   -1.6389    0.0000 C   0  0  0  0  0  0  0  0  0  0  0  0
    7.9477   -0.8139    0.0000 C   0  0  0  0  0  0  0  0  0  0  0  0
    8.6622   -0.4014    0.0000 C   0  5  0  0  0  0  0  0  0  0  0  0
    7.2333   -0.4014    0.0000 N   0  0  0  0  0  0  0  0  0  0  0  0
    6.5188   -0.8139    0.0000 C   0  0  0  0  0  0  0  0  0  0  0  0
    6.5188   -1.6389    0.0000 N   0  0  0  0  0  0  0  0  0  0  0  0
    5.8043   -2.0514    0.0000 C   0  5  0  0  0  0  0  0  0  0  0  0
    5.0898   -1.6389    0.0000 C   0  5  0  0  0  0  0  0  0  0  0  0
    5.0898   -0.8139    0.0000 C   0  0  0  0  0  0  0  0  0  0  0  0
    5.8043   -0.4014    0.0000 N   0  0  0  0  0  0  0  0  0  0  0  0
    4.3754   -0.4014    0.0000 C   0  0  0  0  0  0  0  0  0  0  0  0
    3.6609   -0.8139    0.0000 C   0  5  0  0  0  0  0  0  0  0  0  0
    2.9464   -0.4014    0.0000 C   0  5  0  0  0  0  0  0  0  0  0  0
    2.9464    0.4236    0.0000 C   0  5  0  0  0  0  0  0  0  0  0  0
    3.6609    0.8361    0.0000 N   0  0  0  0  0  0  0  0  0  0  0  0
    4.3754    0.4236    0.0000 C   0  5  0  0  0  0  0  0  0  0  0  0
    7.2333   -2.0514    0.0000 C   0  0  0  0  0  0  0  0  0  0  0  0
  1  2  1  0  0  0  0
  2  3  2  0  0  0  0
  2  4  2  0  0  0  0
  2  5  1  0  0  0  0
  6  7  1  0  0  0  0
  7  8  1  0  0  0  0
  8  9  1  0  0  0  0
  9 10  1  0  0  0  0
 10 11  1  0  0  0  0
 11 12  1  0  0  0  0
  7 12  1  0  0  0  0
 10 13  1  0  0  0  0
 13 14  1  0  0  0  0
 14 15  4  0  0  0  0
 15 16  4  0  0  0  0
 16 17  4  0  0  0  0
 17 18  4  0  0  0  0
 18 19  4  0  0  0  0
 14 19  4  0  0  0  0
 17 20  1  0  0  0  0
 20 21  2  0  0  0  0
 20 22  1  0  0  0  0
 22 23  1  0  0  0  0
 23 24  4  0  0  0  0
 24 25  4  0  0  0  0
 25 26  4  0  0  0  0
 26 27  4  0  0  0  0
 27 28  4  0  0  0  0
 23 28  4  0  0  0  0
 27 29  1  0  0  0  0
 29 30  1  0  0  0  0
 30 31  4  0  0  0  0
 31 32  4  0  0  0  0
 32 33  4  0  0  0  0
 33 34  4  0  0  0  0
 34 35  4  0  0  0  0
 30 35  4  0  0  0  0
 34 36  1  0  0  0  0
 36 37  4  0  0  0  0
 37 38  4  0  0  0  0
 38 39  4  0  0  0  0
 39 40  4  0  0  0  0
 40 41  4  0  0  0  0
 36 41  4  0  0  0  0
 26 42  1  0  0  0  0
M  CHG  8  15  -1  16  -1  18  -1  19  -1  24  -1  25  -1  28  -1  32  -1
M  CHG  5  33  -1  37  -1  38  -1  39  -1  41  -1
M  END
>  <version_id> [MProp:scalar:integer]
48851819

$$$$

  Mrv0541 04011510472D          

 38 42  0  0  0  0            999 V2000
    4.2868   -4.9500    0.0000 O   0  0  0  0  0  0  0  0  0  0  0  0
    5.0013   -5.3625    0.0000 C   0  0  0  0  0  0  0  0  0  0  0  0
    5.0013   -6.1875    0.0000 C   0  0  0  0  0  0  0  0  0  0  0  0
    5.7158   -6.6000    0.0000 C   0  5  0  0  0  0  0  0  0  0  0  0
    5.7158   -7.4250    0.0000 C   0  5  0  0  0  0  0  0  0  0  0  0
    5.0013   -7.8375    0.0000 C   0  0  0  0  0  0  0  0  0  0  0  0
    4.2868   -7.4250    0.0000 C   0  5  0  0  0  0  0  0  0  0  0  0
    4.2868   -6.6000    0.0000 C   0  5  0  0  0  0  0  0  0  0  0  0
    5.0013   -8.6625    0.0000 C   0  0  0  0  0  0  0  0  0  0  0  0
    4.2868   -9.0750    0.0000 N   0  0  0  0  0  0  0  0  0  0  0  0
    4.2868   -9.9000    0.0000 C   0  0  0  0  0  0  0  0  0  0  0  0
    3.5724  -10.3125    0.0000 C   0  0  0  0  0  0  0  0  0  0  0  0
    2.8579   -9.9000    0.0000 N   0  3  0  0  0  0  0  0  0  0  0  0
    2.8579   -9.0750    0.0000 C   0  0  0  0  0  0  0  0  0  0  0  0
    3.5724   -8.6625    0.0000 C   0  0  0  0  0  0  0  0  0  0  0  0
    2.4207  -10.5996    0.0000 O   0  5  0  0  0  0  0  0  0  0  0  0
    2.0334   -9.9288    0.0000 C   0  0  0  0  0  0  0  0  0  0  0  0
    5.7158   -4.9500    0.0000 N   0  0  0  0  0  0  0  0  0  0  0  0
    5.7158   -4.1250    0.0000 C   0  0  0  0  0  0  0  0  0  0  0  0
    5.0013   -3.7125    0.0000 C   0  5  0  0  0  0  0  0  0  0  0  0
    5.0013   -2.8875    0.0000 C   0  5  0  0  0  0  0  0  0  0  0  0
    5.7158   -2.4750    0.0000 C   0  0  0  0  0  0  0  0  0  0  0  0
    6.4302   -2.8875    0.0000 C   0  0  0  0  0  0  0  0  0  0  0  0
    6.4302   -3.7125    0.0000 C   0  5  0  0  0  0  0  0  0  0  0  0
    7.1447   -2.4750    0.0000 N   0  0  0  0  0  0  0  0  0  0  0  0
    7.1447   -1.6500    0.0000 C   0  0  0  0  0  0  0  0  0  0  0  0
    6.4302   -1.2375    0.0000 N   0  0  0  0  0  0  0  0  0  0  0  0
    6.4302   -0.4125    0.0000 C   0  5  0  0  0  0  0  0  0  0  0  0
    7.1447    0.0000    0.0000 C   0  5  0  0  0  0  0  0  0  0  0  0
    7.8592   -0.4125    0.0000 C   0  0  0  0  0  0  0  0  0  0  0  0
    7.8592   -1.2375    0.0000 N   0  0  0  0  0  0  0  0  0  0  0  0
    8.5737    0.0000    0.0000 C   0  0  0  0  0  0  0  0  0  0  0  0
    8.5737    0.8250    0.0000 C   0  5  0  0  0  0  0  0  0  0  0  0
    9.2881    1.2375    0.0000 C   0  5  0  0  0  0  0  0  0  0  0  0
   10.0026    0.8250    0.0000 C   0  5  0  0  0  0  0  0  0  0  0  0
   10.0026    0.0000    0.0000 N   0  0  0  0  0  0  0  0  0  0  0  0
    9.2881   -0.4125    0.0000 C   0  5  0  0  0  0  0  0  0  0  0  0
    5.7158   -1.6500    0.0000 C   0  0  0  0  0  0  0  0  0  0  0  0
  1  2  2  0  0  0  0
  2  3  1  0  0  0  0
  3  4  4  0  0  0  0
  4  5  4  0  0  0  0
  5  6  4  0  0  0  0
  6  7  4  0  0  0  0
  7  8  4  0  0  0  0
  3  8  4  0  0  0  0
  6  9  1  0  0  0  0
  9 10  1  0  0  0  0
 10 11  1  0  0  0  0
 11 12  1  0  0  0  0
 12 13  1  0  0  0  0
 13 14  1  0  0  0  0
 14 15  1  0  0  0  0
 10 15  1  0  0  0  0
 13 16  1  0  0  0  0
 13 17  1  0  0  0  0
  2 18  1  0  0  0  0
 18 19  1  0  0  0  0
 19 20  4  0  0  0  0
 20 21  4  0  0  0  0
 21 22  4  0  0  0  0
 22 23  4  0  0  0  0
 23 24  4  0  0  0  0
 19 24  4  0  0  0  0
 23 25  1  0  0  0  0
 25 26  1  0  0  0  0
 26 27  4  0  0  0  0
 27 28  4  0  0  0  0
 28 29  4  0  0  0  0
 29 30  4  0  0  0  0
 30 31  4  0  0  0  0
 26 31  4  0  0  0  0
 30 32  1  0  0  0  0
 32 33  4  0  0  0  0
 33 34  4  0  0  0  0
 34 35  4  0  0  0  0
 35 36  4  0  0  0  0
 36 37  4  0  0  0  0
 32 37  4  0  0  0  0
 22 38  1  0  0  0  0
M  CHG  8   4  -1   5  -1   7  -1   8  -1  13   1  16  -1  20  -1  21  -1
M  CHG  7  24  -1  28  -1  29  -1  33  -1  34  -1  35  -1  37  -1
M  END
>  <version_id> [MProp:scalar:integer]
48852884

$$$$

  Mrv0541 04011510472D          

 38 42  0  0  0  0            999 V2000
    9.2881   -2.8875    0.0000 O   0  5  0  0  0  0  0  0  0  0  0  0
    9.2881   -3.7125    0.0000 N   0  3  0  0  0  0  0  0  0  0  0  0
   10.0026   -4.1250    0.0000 C   0  5  0  0  0  0  0  0  0  0  0  0
   10.0026   -4.9500    0.0000 C   0  5  0  0  0  0  0  0  0  0  0  0
    9.2881   -5.3625    0.0000 C   0  5  0  0  0  0  0  0  0  0  0  0
    8.5737   -4.9500    0.0000 C   0  0  0  0  0  0  0  0  0  0  0  0
    8.5737   -4.1250    0.0000 C   0  5  0  0  0  0  0  0  0  0  0  0
    7.8592   -5.3625    0.0000 C   0  0  0  0  0  0  0  0  0  0  0  0
    7.8592   -6.1875    0.0000 C   0  5  0  0  0  0  0  0  0  0  0  0
    7.1447   -6.6000    0.0000 C   0  5  0  0  0  0  0  0  0  0  0  0
    6.4302   -6.1875    0.0000 N   0  0  0  0  0  0  0  0  0  0  0  0
    6.4302   -5.3625    0.0000 C   0  0  0  0  0  0  0  0  0  0  0  0
    7.1447   -4.9500    0.0000 N   0  0  0  0  0  0  0  0  0  0  0  0
    5.7158   -4.9500    0.0000 N   0  0  0  0  0  0  0  0  0  0  0  0
    5.7158   -4.1250    0.0000 C   0  0  0  0  0  0  0  0  0  0  0  0
    5.0013   -3.7125    0.0000 C   0  5  0  0  0  0  0  0  0  0  0  0
    5.0013   -2.8875    0.0000 C   0  0  0  0  0  0  0  0  0  0  0  0
    5.7158   -2.4750    0.0000 C   0  5  0  0  0  0  0  0  0  0  0  0
    6.4302   -2.8875    0.0000 C   0  5  0  0  0  0  0  0  0  0  0  0
    6.4302   -3.7125    0.0000 C   0  0  0  0  0  0  0  0  0  0  0  0
    7.1447   -4.1250    0.0000 C   0  0  0  0  0  0  0  0  0  0  0  0
    4.2868   -2.4750    0.0000 N   0  0  0  0  0  0  0  0  0  0  0  0
    3.5724   -2.8875    0.0000 C   0  0  0  0  0  0  0  0  0  0  0  0
    3.5724   -3.7125    0.0000 O   0  0  0  0  0  0  0  0  0  0  0  0
    2.8579   -2.4750    0.0000 C   0  0  0  0  0  0  0  0  0  0  0  0
    2.1434   -2.8875    0.0000 C   0  5  0  0  0  0  0  0  0  0  0  0
    1.4289   -2.4750    0.0000 C   0  5  0  0  0  0  0  0  0  0  0  0
    1.4289   -1.6500    0.0000 C   0  0  0  0  0  0  0  0  0  0  0  0
    2.1434   -1.2375    0.0000 C   0  5  0  0  0  0  0  0  0  0  0  0
    2.8579   -1.6500    0.0000 C   0  5  0  0  0  0  0  0  0  0  0  0
    0.7145   -1.2375    0.0000 C   0  0  0  0  0  0  0  0  0  0  0  0
    0.7145   -0.4125    0.0000 N   0  0  0  0  0  0  0  0  0  0  0  0
    0.0000    0.0000    0.0000 C   0  0  0  0  0  0  0  0  0  0  0  0
    0.0000    0.8250    0.0000 C   0  0  0  0  0  0  0  0  0  0  0  0
    0.7145    1.2375    0.0000 N   0  0  0  0  0  0  0  0  0  0  0  0
    1.4289    0.8250    0.0000 C   0  0  0  0  0  0  0  0  0  0  0  0
    1.4289    0.0000    0.0000 C   0  0  0  0  0  0  0  0  0  0  0  0
    0.7145    2.0625    0.0000 C   0  0  0  0  0  0  0  0  0  0  0  0
  1  2  1  0  0  0  0
  2  3  4  0  0  0  0
  3  4  4  0  0  0  0
  4  5  4  0  0  0  0
  5  6  4  0  0  0  0
  6  7  4  0  0  0  0
  2  7  4  0  0  0  0
  6  8  1  0  0  0  0
  8  9  4  0  0  0  0
  9 10  4  0  0  0  0
 10 11  4  0  0  0  0
 11 12  4  0  0  0  0
 12 13  4  0  0  0  0
  8 13  4  0  0  0  0
 12 14  1  0  0  0  0
 14 15  1  0  0  0  0
 15 16  4  0  0  0  0
 16 17  4  0  0  0  0
 17 18  4  0  0  0  0
 18 19  4  0  0  0  0
 19 20  4  0  0  0  0
 15 20  4  0  0  0  0
 20 21  1  0  0  0  0
 17 22  1  0  0  0  0
 22 23  1  0  0  0  0
 23 24  2  0  0  0  0
 23 25  1  0  0  0  0
 25 26  4  0  0  0  0
 26 27  4  0  0  0  0
 27 28  4  0  0  0  0
 28 29  4  0  0  0  0
 29 30  4  0  0  0  0
 25 30  4  0  0  0  0
 28 31  1  0  0  0  0
 31 32  1  0  0  0  0
 32 33  1  0  0  0  0
 33 34  1  0  0  0  0
 34 35  1  0  0  0  0
 35 36  1  0  0  0  0
 36 37  1  0  0  0  0
 32 37  1  0  0  0  0
 35 38  1  0  0  0  0
M  CHG  8   1  -1   2   1   3  -1   4  -1   5  -1   7  -1   9  -1  10  -1
M  CHG  7  16  -1  18  -1  19  -1  26  -1  27  -1  29  -1  30  -1
M  END
>  <version_id> [MProp:scalar:integer]
48852886

$$$$

  Mrv0541 04011510472D          

 31 34  0  0  0  0            999 V2000
    4.2868   -4.9500    0.0000 Cl  0  0  0  0  0  0  0  0  0  0  0  0
    5.0013   -5.3625    0.0000 C   0  0  0  0  0  0  0  0  0  0  0  0
    5.0013   -6.1875    0.0000 C   0  0  0  0  0  0  0  0  0  0  0  0
    5.7158   -6.6000    0.0000 C   0  5  0  0  0  0  0  0  0  0  0  0
    5.7158   -7.4250    0.0000 C   0  5  0  0  0  0  0  0  0  0  0  0
    5.0013   -7.8375    0.0000 C   0  0  0  0  0  0  0  0  0  0  0  0
    4.2868   -7.4250    0.0000 C   0  5  0  0  0  0  0  0  0  0  0  0
    4.2868   -6.6000    0.0000 C   0  5  0  0  0  0  0  0  0  0  0  0
    5.0013   -8.6625    0.0000 C   0  0  0  0  0  0  0  0  0  0  0  0
    5.7158   -9.0750    0.0000 O   0  0  0  0  0  0  0  0  0  0  0  0
    4.2868   -9.0750    0.0000 N   0  0  0  0  0  0  0  0  0  0  0  0
    4.2868   -9.9000    0.0000 C   0  0  0  0  0  0  0  0  0  0  0  0
    5.0013  -10.3125    0.0000 C   0  5  0  0  0  0  0  0  0  0  0  0
    5.0013  -11.1375    0.0000 C   0  5  0  0  0  0  0  0  0  0  0  0
    4.2868  -11.5500    0.0000 C   0  0  0  0  0  0  0  0  0  0  0  0
    3.5724  -11.1375    0.0000 C   0  0  0  0  0  0  0  0  0  0  0  0
    3.5724  -10.3125    0.0000 C   0  5  0  0  0  0  0  0  0  0  0  0
    2.8579  -11.5500    0.0000 N   0  0  0  0  0  0  0  0  0  0  0  0
    2.8579  -12.3750    0.0000 C   0  0  0  0  0  0  0  0  0  0  0  0
    3.5724  -12.7875    0.0000 N   0  0  0  0  0  0  0  0  0  0  0  0
    3.5724  -13.6125    0.0000 C   0  5  0  0  0  0  0  0  0  0  0  0
    2.8579  -14.0250    0.0000 C   0  5  0  0  0  0  0  0  0  0  0  0
    2.1434  -13.6125    0.0000 C   0  0  0  0  0  0  0  0  0  0  0  0
    2.1434  -12.7875    0.0000 N   0  0  0  0  0  0  0  0  0  0  0  0
    1.4289  -14.0250    0.0000 C   0  0  0  0  0  0  0  0  0  0  0  0
    1.4289  -14.8500    0.0000 C   0  5  0  0  0  0  0  0  0  0  0  0
    0.7145  -15.2625    0.0000 C   0  5  0  0  0  0  0  0  0  0  0  0
    0.0000  -14.8500    0.0000 C   0  5  0  0  0  0  0  0  0  0  0  0
    0.0000  -14.0250    0.0000 N   0  0  0  0  0  0  0  0  0  0  0  0
    0.7145  -13.6125    0.0000 C   0  5  0  0  0  0  0  0  0  0  0  0
    4.2868  -12.3750    0.0000 C   0  0  0  0  0  0  0  0  0  0  0  0
  1  2  1  0  0  0  0
  2  3  1  0  0  0  0
  3  4  4  0  0  0  0
  4  5  4  0  0  0  0
  5  6  4  0  0  0  0
  6  7  4  0  0  0  0
  7  8  4  0  0  0  0
  3  8  4  0  0  0  0
  6  9  1  0  0  0  0
  9 10  2  0  0  0  0
  9 11  1  0  0  0  0
 11 12  1  0  0  0  0
 12 13  4  0  0  0  0
 13 14  4  0  0  0  0
 14 15  4  0  0  0  0
 15 16  4  0  0  0  0
 16 17  4  0  0  0  0
 12 17  4  0  0  0  0
 16 18  1  0  0  0  0
 18 19  1  0  0  0  0
 19 20  4  0  0  0  0
 20 21  4  0  0  0  0
 21 22  4  0  0  0  0
 22 23  4  0  0  0  0
 23 24  4  0  0  0  0
 19 24  4  0  0  0  0
 23 25  1  0  0  0  0
 25 26  4  0  0  0  0
 26 27  4  0  0  0  0
 27 28  4  0  0  0  0
 28 29  4  0  0  0  0
 29 30  4  0  0  0  0
 25 30  4  0  0  0  0
 15 31  1  0  0  0  0
M  CHG  8   4  -1   5  -1   7  -1   8  -1  13  -1  14  -1  17  -1  21  -1
M  CHG  5  22  -1  26  -1  27  -1  28  -1  30  -1
M  END
>  <version_id> [MProp:scalar:integer]
48854613

$$$$

  Mrv0541 04011510472D          

 42 46  0  0  1  0            999 V2000
    1.4289   -7.4250    0.0000 C   0  0  0  0  0  0  0  0  0  0  0  0
    0.7145   -7.8375    0.0000 N   0  0  0  0  0  0  0  0  0  0  0  0
    0.7145   -8.6625    0.0000 C   0  0  1  0  0  0  0  0  0  0  0  0
    1.3819   -9.1474    0.0000 C   0  0  0  0  0  0  0  0  0  0  0  0
    1.1270   -9.9320    0.0000 C   0  0  0  0  0  0  0  0  0  0  0  0
    0.3020   -9.9320    0.0000 N   0  0  0  0  0  0  0  0  0  0  0  0
    0.0470   -9.1474    0.0000 C   0  0  0  0  0  0  0  0  0  0  0  0
   -0.1830  -10.5995    0.0000 C   0  0  0  0  0  0  0  0  0  0  0  0
   -1.0034  -10.5132    0.0000 C   0  0  0  0  0  0  0  0  0  0  0  0
   -1.4884  -11.1807    0.0000 C   0  5  0  0  0  0  0  0  0  0  0  0
   -2.3088  -11.0945    0.0000 C   0  5  0  0  0  0  0  0  0  0  0  0
   -2.6444  -10.3408    0.0000 C   0  0  0  0  0  0  0  0  0  0  0  0
   -2.1595   -9.6733    0.0000 C   0  5  0  0  0  0  0  0  0  0  0  0
   -1.3390   -9.7596    0.0000 C   0  0  0  0  0  0  0  0  0  0  0  0
   -0.8541   -9.0921    0.0000 C   0  0  0  0  0  0  0  0  0  0  0  0
   -0.3691   -8.4247    0.0000 F   0  0  0  0  0  0  0  0  0  0  0  0
   -0.1866   -9.5771    0.0000 F   0  0  0  0  0  0  0  0  0  0  0  0
   -1.5215   -8.6072    0.0000 F   0  0  0  0  0  0  0  0  0  0  0  0
   -3.4649  -10.2545    0.0000 C   0  0  0  0  0  0  0  0  0  0  0  0
   -3.8004   -9.5009    0.0000 O   0  0  0  0  0  0  0  0  0  0  0  0
   -3.9498  -10.9220    0.0000 N   0  0  0  0  0  0  0  0  0  0  0  0
   -3.6142  -11.6757    0.0000 C   0  0  0  0  0  0  0  0  0  0  0  0
   -2.7938  -11.7619    0.0000 C   0  5  0  0  0  0  0  0  0  0  0  0
   -2.4582  -12.5156    0.0000 C   0  5  0  0  0  0  0  0  0  0  0  0
   -2.9431  -13.1830    0.0000 C   0  0  0  0  0  0  0  0  0  0  0  0
   -3.7636  -13.0968    0.0000 C   0  0  0  0  0  0  0  0  0  0  0  0
   -4.0992  -12.3431    0.0000 C   0  5  0  0  0  0  0  0  0  0  0  0
   -4.2485  -13.7642    0.0000 N   0  0  0  0  0  0  0  0  0  0  0  0
   -3.9130  -14.5179    0.0000 C   0  0  0  0  0  0  0  0  0  0  0  0
   -3.0925  -14.6041    0.0000 N   0  0  0  0  0  0  0  0  0  0  0  0
   -2.7569  -15.3578    0.0000 C   0  5  0  0  0  0  0  0  0  0  0  0
   -3.2419  -16.0252    0.0000 C   0  5  0  0  0  0  0  0  0  0  0  0
   -4.0623  -15.9390    0.0000 C   0  0  0  0  0  0  0  0  0  0  0  0
   -4.3979  -15.1853    0.0000 N   0  0  0  0  0  0  0  0  0  0  0  0
   -4.5473  -16.6064    0.0000 C   0  0  0  0  0  0  0  0  0  0  0  0
   -4.2117  -17.3601    0.0000 C   0  5  0  0  0  0  0  0  0  0  0  0
   -4.6966  -18.0275    0.0000 N   0  0  0  0  0  0  0  0  0  0  0  0
   -5.5171  -17.9413    0.0000 C   0  5  0  0  0  0  0  0  0  0  0  0
   -5.8527  -17.1876    0.0000 N   0  0  0  0  0  0  0  0  0  0  0  0
   -5.3677  -16.5202    0.0000 C   0  5  0  0  0  0  0  0  0  0  0  0
   -2.6076  -13.9367    0.0000 C   0  0  0  0  0  0  0  0  0  0  0  0
    0.0000   -7.4250    0.0000 C   0  0  0  0  0  0  0  0  0  0  0  0
  1  2  1  0  0  0  0
  3  2  1  1  0  0  0
  3  4  1  0  0  0  0
  4  5  1  0  0  0  0
  5  6  1  0  0  0  0
  6  7  1  0  0  0  0
  3  7  1  0  0  0  0
  6  8  1  0  0  0  0
  8  9  1  0  0  0  0
  9 10  4  0  0  0  0
 10 11  4  0  0  0  0
 11 12  4  0  0  0  0
 12 13  4  0  0  0  0
 13 14  4  0  0  0  0
  9 14  4  0  0  0  0
 14 15  1  0  0  0  0
 15 16  1  0  0  0  0
 15 17  1  0  0  0  0
 15 18  1  0  0  0  0
 12 19  1  0  0  0  0
 19 20  2  0  0  0  0
 19 21  1  0  0  0  0
 21 22  1  0  0  0  0
 22 23  4  0  0  0  0
 23 24  4  0  0  0  0
 24 25  4  0  0  0  0
 25 26  4  0  0  0  0
 26 27  4  0  0  0  0
 22 27  4  0  0  0  0
 26 28  1  0  0  0  0
 28 29  1  0  0  0  0
 29 30  4  0  0  0  0
 30 31  4  0  0  0  0
 31 32  4  0  0  0  0
 32 33  4  0  0  0  0
 33 34  4  0  0  0  0
 29 34  4  0  0  0  0
 33 35  1  0  0  0  0
 35 36  4  0  0  0  0
 36 37  4  0  0  0  0
 37 38  4  0  0  0  0
 38 39  4  0  0  0  0
 39 40  4  0  0  0  0
 35 40  4  0  0  0  0
 25 41  1  0  0  0  0
  2 42  1  0  0  0  0
M  CHG  8  10  -1  11  -1  13  -1  23  -1  24  -1  27  -1  31  -1  32  -1
M  CHG  3  36  -1  38  -1  40  -1
M  END
>  <version_id> [MProp:scalar:integer]
48858592

$$$$

  Mrv0541 04011510472D          

 37 41  0  0  0  0            999 V2000
    7.8592   -5.3625    0.0000 C   0  0  0  0  0  0  0  0  0  0  0  0
    7.8592   -6.1875    0.0000 N   0  0  0  0  0  0  0  0  0  0  0  0
    8.5737   -6.6000    0.0000 C   0  0  0  0  0  0  0  0  0  0  0  0
    8.5737   -7.4250    0.0000 C   0  0  0  0  0  0  0  0  0  0  0  0
    7.8592   -7.8375    0.0000 N   0  0  0  0  0  0  0  0  0  0  0  0
    7.1447   -7.4250    0.0000 C   0  0  0  0  0  0  0  0  0  0  0  0
    7.1447   -6.6000    0.0000 C   0  0  0  0  0  0  0  0  0  0  0  0
    7.8592   -8.6625    0.0000 C   0  0  0  0  0  0  0  0  0  0  0  0
    8.5737   -9.0750    0.0000 C   0  0  0  0  0  0  0  0  0  0  0  0
    9.2881   -8.6625    0.0000 C   0  5  0  0  0  0  0  0  0  0  0  0
   10.0026   -9.0750    0.0000 C   0  5  0  0  0  0  0  0  0  0  0  0
   10.0026   -9.9000    0.0000 C   0  5  0  0  0  0  0  0  0  0  0  0
    9.2881  -10.3125    0.0000 C   0  0  0  0  0  0  0  0  0  0  0  0
    8.5737   -9.9000    0.0000 C   0  5  0  0  0  0  0  0  0  0  0  0
    9.2881  -11.1375    0.0000 C   0  0  0  0  0  0  0  0  0  0  0  0
   10.0026  -11.5500    0.0000 O   0  0  0  0  0  0  0  0  0  0  0  0
    8.5737  -11.5500    0.0000 N   0  0  0  0  0  0  0  0  0  0  0  0
    8.5737  -12.3750    0.0000 C   0  0  0  0  0  0  0  0  0  0  0  0
    9.2881  -12.7875    0.0000 C   0  5  0  0  0  0  0  0  0  0  0  0
    9.2881  -13.6125    0.0000 C   0  5  0  0  0  0  0  0  0  0  0  0
    8.5737  -14.0250    0.0000 C   0  0  0  0  0  0  0  0  0  0  0  0
    7.8592  -13.6125    0.0000 C   0  0  0  0  0  0  0  0  0  0  0  0
    7.8592  -12.7875    0.0000 C   0  5  0  0  0  0  0  0  0  0  0  0
    7.1447  -14.0250    0.0000 N   0  0  0  0  0  0  0  0  0  0  0  0
    7.1447  -14.8500    0.0000 C   0  0  0  0  0  0  0  0  0  0  0  0
    7.8592  -15.2625    0.0000 N   0  0  0  0  0  0  0  0  0  0  0  0
    7.8592  -16.0875    0.0000 C   0  5  0  0  0  0  0  0  0  0  0  0
    7.1447  -16.5000    0.0000 C   0  5  0  0  0  0  0  0  0  0  0  0
    6.4302  -16.0875    0.0000 C   0  0  0  0  0  0  0  0  0  0  0  0
    6.4302  -15.2625    0.0000 N   0  0  0  0  0  0  0  0  0  0  0  0
    5.7158  -16.5000    0.0000 C   0  0  0  0  0  0  0  0  0  0  0  0
    5.7158  -17.3250    0.0000 C   0  5  0  0  0  0  0  0  0  0  0  0
    5.0013  -17.7375    0.0000 C   0  5  0  0  0  0  0  0  0  0  0  0
    4.2868  -17.3250    0.0000 C   0  5  0  0  0  0  0  0  0  0  0  0
    4.2868  -16.5000    0.0000 N   0  0  0  0  0  0  0  0  0  0  0  0
    5.0013  -16.0875    0.0000 C   0  5  0  0  0  0  0  0  0  0  0  0
    8.5737  -14.8500    0.0000 C   0  0  0  0  0  0  0  0  0  0  0  0
  1  2  1  0  0  0  0
  2  3  1  0  0  0  0
  3  4  1  0  0  0  0
  4  5  1  0  0  0  0
  5  6  1  0  0  0  0
  6  7  1  0  0  0  0
  2  7  1  0  0  0  0
  5  8  1  0  0  0  0
  8  9  1  0  0  0  0
  9 10  4  0  0  0  0
 10 11  4  0  0  0  0
 11 12  4  0  0  0  0
 12 13  4  0  0  0  0
 13 14  4  0  0  0  0
  9 14  4  0  0  0  0
 13 15  1  0  0  0  0
 15 16  2  0  0  0  0
 15 17  1  0  0  0  0
 17 18  1  0  0  0  0
 18 19  4  0  0  0  0
 19 20  4  0  0  0  0
 20 21  4  0  0  0  0
 21 22  4  0  0  0  0
 22 23  4  0  0  0  0
 18 23  4  0  0  0  0
 22 24  1  0  0  0  0
 24 25  1  0  0  0  0
 25 26  4  0  0  0  0
 26 27  4  0  0  0  0
 27 28  4  0  0  0  0
 28 29  4  0  0  0  0
 29 30  4  0  0  0  0
 25 30  4  0  0  0  0
 29 31  1  0  0  0  0
 31 32  4  0  0  0  0
 32 33  4  0  0  0  0
 33 34  4  0  0  0  0
 34 35  4  0  0  0  0
 35 36  4  0  0  0  0
 31 36  4  0  0  0  0
 21 37  1  0  0  0  0
M  CHG  8  10  -1  11  -1  12  -1  14  -1  19  -1  20  -1  23  -1  27  -1
M  CHG  5  28  -1  32  -1  33  -1  34  -1  36  -1
M  END
>  <version_id> [MProp:scalar:integer]
48860864

$$$$

  Mrv0541 04011510472D          

 66 74  0  0  0  0            999 V2000
    4.2868   -4.9500    0.0000 O   0  0  0  0  0  0  0  0  0  0  0  0
    5.0013   -5.3625    0.0000 C   0  0  0  0  0  0  0  0  0  0  0  0
    5.0013   -6.1875    0.0000 C   0  0  0  0  0  0  0  0  0  0  0  0
    5.7158   -6.6000    0.0000 C   0  5  0  0  0  0  0  0  0  0  0  0
    5.7158   -7.4250    0.0000 C   0  5  0  0  0  0  0  0  0  0  0  0
    5.0013   -7.8375    0.0000 C   0  0  0  0  0  0  0  0  0  0  0  0
    4.2868   -7.4250    0.0000 C   0  5  0  0  0  0  0  0  0  0  0  0
    4.2868   -6.6000    0.0000 C   0  5  0  0  0  0  0  0  0  0  0  0
    5.0013   -8.6625    0.0000 C   0  0  0  0  0  0  0  0  0  0  0  0
    4.2868   -9.0750    0.0000 N   0  0  0  0  0  0  0  0  0  0  0  0
    4.2868   -9.9000    0.0000 C   0  0  0  0  0  0  0  0  0  0  0  0
    3.5724  -10.3125    0.0000 C   0  0  0  0  0  0  0  0  0  0  0  0
    2.8579   -9.9000    0.0000 N   0  0  0  0  0  0  0  0  0  0  0  0
    2.8579   -9.0750    0.0000 C   0  0  0  0  0  0  0  0  0  0  0  0
    3.5724   -8.6625    0.0000 C   0  0  0  0  0  0  0  0  0  0  0  0
    2.1434  -10.3125    0.0000 C   0  0  0  0  0  0  0  0  0  0  0  0
    2.1434  -11.1375    0.0000 C   0  0  0  0  0  0  0  0  0  0  0  0
    2.8579  -11.5500    0.0000 C   0  5  0  0  0  0  0  0  0  0  0  0
    2.8579  -12.3750    0.0000 C   0  5  0  0  0  0  0  0  0  0  0  0
    2.1434  -12.7875    0.0000 C   0  0  0  0  0  0  0  0  0  0  0  0
    1.4289  -12.3750    0.0000 C   0  5  0  0  0  0  0  0  0  0  0  0
    1.4289  -11.5500    0.0000 C   0  5  0  0  0  0  0  0  0  0  0  0
    2.1434  -13.6125    0.0000 C   0  0  0  0  0  0  0  0  0  0  0  0
    2.8579  -14.0250    0.0000 O   0  0  0  0  0  0  0  0  0  0  0  0
    1.4289  -14.0250    0.0000 N   0  0  0  0  0  0  0  0  0  0  0  0
    1.4289  -14.8500    0.0000 C   0  0  0  0  0  0  0  0  0  0  0  0
    2.1434  -15.2625    0.0000 C   0  5  0  0  0  0  0  0  0  0  0  0
    2.1434  -16.0875    0.0000 C   0  5  0  0  0  0  0  0  0  0  0  0
    1.4289  -16.5000    0.0000 C   0  0  0  0  0  0  0  0  0  0  0  0
    0.7145  -16.0875    0.0000 C   0  0  0  0  0  0  0  0  0  0  0  0
    0.7145  -15.2625    0.0000 C   0  5  0  0  0  0  0  0  0  0  0  0
    0.0000  -16.5000    0.0000 N   0  0  0  0  0  0  0  0  0  0  0  0
    0.0000  -17.3250    0.0000 C   0  0  0  0  0  0  0  0  0  0  0  0
    0.7145  -17.7375    0.0000 N   0  0  0  0  0  0  0  0  0  0  0  0
    0.7145  -18.5625    0.0000 C   0  5  0  0  0  0  0  0  0  0  0  0
    0.0000  -18.9750    0.0000 C   0  5  0  0  0  0  0  0  0  0  0  0
   -0.7145  -18.5625    0.0000 C   0  0  0  0  0  0  0  0  0  0  0  0
   -0.7145  -17.7375    0.0000 N   0  0  0  0  0  0  0  0  0  0  0  0
   -1.4289  -18.9750    0.0000 C   0  0  0  0  0  0  0  0  0  0  0  0
   -1.4289  -19.8000    0.0000 C   0  5  0  0  0  0  0  0  0  0  0  0
   -2.1434  -20.2125    0.0000 C   0  5  0  0  0  0  0  0  0  0  0  0
   -2.8579  -19.8000    0.0000 C   0  5  0  0  0  0  0  0  0  0  0  0
   -2.8579  -18.9750    0.0000 N   0  0  0  0  0  0  0  0  0  0  0  0
   -2.1434  -18.5625    0.0000 C   0  5  0  0  0  0  0  0  0  0  0  0
    1.4289  -17.3250    0.0000 C   0  0  0  0  0  0  0  0  0  0  0  0
    5.7158   -4.9500    0.0000 N   0  0  0  0  0  0  0  0  0  0  0  0
    5.7158   -4.1250    0.0000 C   0  0  0  0  0  0  0  0  0  0  0  0
    5.0013   -3.7125    0.0000 C   0  5  0  0  0  0  0  0  0  0  0  0
    5.0013   -2.8875    0.0000 C   0  5  0  0  0  0  0  0  0  0  0  0
    5.7158   -2.4750    0.0000 C   0  0  0  0  0  0  0  0  0  0  0  0
    6.4302   -2.8875    0.0000 C   0  0  0  0  0  0  0  0  0  0  0  0
    6.4302   -3.7125    0.0000 C   0  5  0  0  0  0  0  0  0  0  0  0
    7.1447   -2.4750    0.0000 N   0  0  0  0  0  0  0  0  0  0  0  0
    7.1447   -1.6500    0.0000 C   0  0  0  0  0  0  0  0  0  0  0  0
    6.4302   -1.2375    0.0000 N   0  0  0  0  0  0  0  0  0  0  0  0
    6.4302   -0.4125    0.0000 C   0  5  0  0  0  0  0  0  0  0  0  0
    7.1447    0.0000    0.0000 C   0  5  0  0  0  0  0  0  0  0  0  0
    7.8592   -0.4125    0.0000 C   0  0  0  0  0  0  0  0  0  0  0  0
    7.8592   -1.2375    0.0000 N   0  0  0  0  0  0  0  0  0  0  0  0
    8.5737    0.0000    0.0000 C   0  0  0  0  0  0  0  0  0  0  0  0
    8.5737    0.8250    0.0000 C   0  5  0  0  0  0  0  0  0  0  0  0
    9.2881    1.2375    0.0000 C   0  5  0  0  0  0  0  0  0  0  0  0
   10.0026    0.8250    0.0000 C   0  5  0  0  0  0  0  0  0  0  0  0
   10.0026    0.0000    0.0000 N   0  0  0  0  0  0  0  0  0  0  0  0
    9.2881   -0.4125    0.0000 C   0  5  0  0  0  0  0  0  0  0  0  0
    5.7158   -1.6500    0.0000 C   0  0  0  0  0  0  0  0  0  0  0  0
  1  2  2  0  0  0  0
  2  3  1  0  0  0  0
  3  4  4  0  0  0  0
  4  5  4  0  0  0  0
  5  6  4  0  0  0  0
  6  7  4  0  0  0  0
  7  8  4  0  0  0  0
  3  8  4  0  0  0  0
  6  9  1  0  0  0  0
  9 10  1  0  0  0  0
 10 11  1  0  0  0  0
 11 12  1  0  0  0  0
 12 13  1  0  0  0  0
 13 14  1  0  0  0  0
 14 15  1  0  0  0  0
 10 15  1  0  0  0  0
 13 16  1  0  0  0  0
 16 17  1  0  0  0  0
 17 18  4  0  0  0  0
 18 19  4  0  0  0  0
 19 20  4  0  0  0  0
 20 21  4  0  0  0  0
 21 22  4  0  0  0  0
 17 22  4  0  0  0  0
 20 23  1  0  0  0  0
 23 24  2  0  0  0  0
 23 25  1  0  0  0  0
 25 26  1  0  0  0  0
 26 27  4  0  0  0  0
 27 28  4  0  0  0  0
 28 29  4  0  0  0  0
 29 30  4  0  0  0  0
 30 31  4  0  0  0  0
 26 31  4  0  0  0  0
 30 32  1  0  0  0  0
 32 33  1  0  0  0  0
 33 34  4  0  0  0  0
 34 35  4  0  0  0  0
 35 36  4  0  0  0  0
 36 37  4  0  0  0  0
 37 38  4  0  0  0  0
 33 38  4  0  0  0  0
 37 39  1  0  0  0  0
 39 40  4  0  0  0  0
 40 41  4  0  0  0  0
 41 42  4  0  0  0  0
 42 43  4  0  0  0  0
 43 44  4  0  0  0  0
 39 44  4  0  0  0  0
 29 45  1  0  0  0  0
  2 46  1  0  0  0  0
 46 47  1  0  0  0  0
 47 48  4  0  0  0  0
 48 49  4  0  0  0  0
 49 50  4  0  0  0  0
 50 51  4  0  0  0  0
 51 52  4  0  0  0  0
 47 52  4  0  0  0  0
 51 53  1  0  0  0  0
 53 54  1  0  0  0  0
 54 55  4  0  0  0  0
 55 56  4  0  0  0  0
 56 57  4  0  0  0  0
 57 58  4  0  0  0  0
 58 59  4  0  0  0  0
 54 59  4  0  0  0  0
 58 60  1  0  0  0  0
 60 61  4  0  0  0  0
 61 62  4  0  0  0  0
 62 63  4  0  0  0  0
 63 64  4  0  0  0  0
 64 65  4  0  0  0  0
 60 65  4  0  0  0  0
 50 66  1  0  0  0  0
M  CHG  8   4  -1   5  -1   7  -1   8  -1  18  -1  19  -1  21  -1  22  -1
M  CHG  8  27  -1  28  -1  31  -1  35  -1  36  -1  40  -1  41  -1  42  -1
M  CHG  8  44  -1  48  -1  49  -1  52  -1  56  -1  57  -1  61  -1  62  -1
M  CHG  2  63  -1  65  -1
M  END
>  <version_id> [MProp:scalar:integer]
48871679

$$$$

  Mrv0541 04011510472D          

 39 43  0  0  0  0            999 V2000
    4.2868   -4.9500    0.0000 O   0  0  0  0  0  0  0  0  0  0  0  0
    5.0013   -5.3625    0.0000 C   0  0  0  0  0  0  0  0  0  0  0  0
    5.0013   -6.1875    0.0000 C   0  0  0  0  0  0  0  0  0  0  0  0
    5.7158   -6.6000    0.0000 C   0  5  0  0  0  0  0  0  0  0  0  0
    5.7158   -7.4250    0.0000 C   0  5  0  0  0  0  0  0  0  0  0  0
    5.0013   -7.8375    0.0000 C   0  0  0  0  0  0  0  0  0  0  0  0
    4.2868   -7.4250    0.0000 C   0  5  0  0  0  0  0  0  0  0  0  0
    4.2868   -6.6000    0.0000 C   0  5  0  0  0  0  0  0  0  0  0  0
    5.0013   -8.6625    0.0000 C   0  0  0  0  0  0  0  0  0  0  0  0
    4.2868   -9.0750    0.0000 N   0  3  0  0  0  0  0  0  0  0  0  0
    4.0047   -8.2998    0.0000 O   0  5  0  0  0  0  0  0  0  0  0  0
    4.8171   -9.7070    0.0000 C   0  0  0  0  0  0  0  0  0  0  0  0
    4.5350  -10.4822    0.0000 C   0  0  0  0  0  0  0  0  0  0  0  0
    3.7225  -10.6255    0.0000 N   0  3  0  0  0  0  0  0  0  0  0  0
    3.1922   -9.9935    0.0000 C   0  0  0  0  0  0  0  0  0  0  0  0
    3.4744   -9.2183    0.0000 C   0  0  0  0  0  0  0  0  0  0  0  0
    3.8373  -11.4425    0.0000 O   0  5  0  0  0  0  0  0  0  0  0  0
    3.1094  -11.1775    0.0000 C   0  0  0  0  0  0  0  0  0  0  0  0
    5.7158   -4.9500    0.0000 N   0  0  0  0  0  0  0  0  0  0  0  0
    5.7158   -4.1250    0.0000 C   0  0  0  0  0  0  0  0  0  0  0  0
    5.0013   -3.7125    0.0000 C   0  5  0  0  0  0  0  0  0  0  0  0
    5.0013   -2.8875    0.0000 C   0  5  0  0  0  0  0  0  0  0  0  0
    5.7158   -2.4750    0.0000 C   0  0  0  0  0  0  0  0  0  0  0  0
    6.4302   -2.8875    0.0000 C   0  0  0  0  0  0  0  0  0  0  0  0
    6.4302   -3.7125    0.0000 C   0  5  0  0  0  0  0  0  0  0  0  0
    7.1447   -2.4750    0.0000 N   0  0  0  0  0  0  0  0  0  0  0  0
    7.1447   -1.6500    0.0000 C   0  0  0  0  0  0  0  0  0  0  0  0
    6.4302   -1.2375    0.0000 N   0  0  0  0  0  0  0  0  0  0  0  0
    6.4302   -0.4125    0.0000 C   0  5  0  0  0  0  0  0  0  0  0  0
    7.1447    0.0000    0.0000 C   0  5  0  0  0  0  0  0  0  0  0  0
    7.8592   -0.4125    0.0000 C   0  0  0  0  0  0  0  0  0  0  0  0
    7.8592   -1.2375    0.0000 N   0  0  0  0  0  0  0  0  0  0  0  0
    8.5737    0.0000    0.0000 C   0  0  0  0  0  0  0  0  0  0  0  0
    8.5737    0.8250    0.0000 C   0  5  0  0  0  0  0  0  0  0  0  0
    9.2881    1.2375    0.0000 C   0  5  0  0  0  0  0  0  0  0  0  0
   10.0026    0.8250    0.0000 C   0  5  0  0  0  0  0  0  0  0  0  0
   10.0026    0.0000    0.0000 N   0  0  0  0  0  0  0  0  0  0  0  0
    9.2881   -0.4125    0.0000 C   0  5  0  0  0  0  0  0  0  0  0  0
    5.7158   -1.6500    0.0000 C   0  0  0  0  0  0  0  0  0  0  0  0
  1  2  2  0  0  0  0
  2  3  1  0  0  0  0
  3  4  4  0  0  0  0
  4  5  4  0  0  0  0
  5  6  4  0  0  0  0
  6  7  4  0  0  0  0
  7  8  4  0  0  0  0
  3  8  4  0  0  0  0
  6  9  1  0  0  0  0
  9 10  1  0  0  0  0
 10 11  1  0  0  0  0
 10 12  1  0  0  0  0
 12 13  1  0  0  0  0
 13 14  1  0  0  0  0
 14 15  1  0  0  0  0
 15 16  1  0  0  0  0
 10 16  1  0  0  0  0
 14 17  1  0  0  0  0
 14 18  1  0  0  0  0
  2 19  1  0  0  0  0
 19 20  1  0  0  0  0
 20 21  4  0  0  0  0
 21 22  4  0  0  0  0
 22 23  4  0  0  0  0
 23 24  4  0  0  0  0
 24 25  4  0  0  0  0
 20 25  4  0  0  0  0
 24 26  1  0  0  0  0
 26 27  1  0  0  0  0
 27 28  4  0  0  0  0
 28 29  4  0  0  0  0
 29 30  4  0  0  0  0
 30 31  4  0  0  0  0
 31 32  4  0  0  0  0
 27 32  4  0  0  0  0
 31 33  1  0  0  0  0
 33 34  4  0  0  0  0
 34 35  4  0  0  0  0
 35 36  4  0  0  0  0
 36 37  4  0  0  0  0
 37 38  4  0  0  0  0
 33 38  4  0  0  0  0
 23 39  1  0  0  0  0
M  CHG  8   4  -1   5  -1   7  -1   8  -1  10   1  11  -1  14   1  17  -1
M  CHG  8  21  -1  22  -1  25  -1  29  -1  30  -1  34  -1  35  -1  36  -1
M  CHG  1  38  -1
M  END
>  <version_id> [MProp:scalar:integer]
48872764

$$$$

  Mrv0541 04011510472D          

 38 42  0  0  0  0            999 V2000
    7.5819   -8.3754    0.0000 C   0  0  0  0  0  0  0  0  0  0  0  0
    7.5819   -7.5504    0.0000 N   0  0  0  0  0  0  0  0  0  0  0  0
    6.8674   -7.1379    0.0000 C   0  0  0  0  0  0  0  0  0  0  0  0
    6.8674   -6.3129    0.0000 C   0  0  0  0  0  0  0  0  0  0  0  0
    7.5819   -5.9004    0.0000 N   0  3  0  0  0  0  0  0  0  0  0  0
    8.2964   -6.3129    0.0000 C   0  0  0  0  0  0  0  0  0  0  0  0
    8.2964   -7.1379    0.0000 C   0  0  0  0  0  0  0  0  0  0  0  0
    7.1946   -5.1719    0.0000 O   0  5  0  0  0  0  0  0  0  0  0  0
    7.9692   -5.1719    0.0000 C   0  0  0  0  0  0  0  0  0  0  0  0
    8.7937   -5.1431    0.0000 C   0  0  0  0  0  0  0  0  0  0  0  0
    9.1810   -4.4147    0.0000 C   0  5  0  0  0  0  0  0  0  0  0  0
   10.0055   -4.3859    0.0000 C   0  5  0  0  0  0  0  0  0  0  0  0
   10.4427   -5.0856    0.0000 C   0  0  0  0  0  0  0  0  0  0  0  0
   10.0554   -5.8140    0.0000 C   0  5  0  0  0  0  0  0  0  0  0  0
    9.2309   -5.8428    0.0000 C   0  5  0  0  0  0  0  0  0  0  0  0
   11.2672   -5.0568    0.0000 C   0  0  0  0  0  0  0  0  0  0  0  0
   11.6545   -4.3283    0.0000 O   0  0  0  0  0  0  0  0  0  0  0  0
   11.7044   -5.7564    0.0000 N   0  0  0  0  0  0  0  0  0  0  0  0
   12.5289   -5.7276    0.0000 C   0  0  0  0  0  0  0  0  0  0  0  0
   12.9162   -4.9992    0.0000 C   0  5  0  0  0  0  0  0  0  0  0  0
   13.7407   -4.9704    0.0000 C   0  5  0  0  0  0  0  0  0  0  0  0
   14.1779   -5.6700    0.0000 C   0  0  0  0  0  0  0  0  0  0  0  0
   13.7906   -6.3985    0.0000 C   0  0  0  0  0  0  0  0  0  0  0  0
   12.9661   -6.4272    0.0000 C   0  5  0  0  0  0  0  0  0  0  0  0
   14.2277   -7.0981    0.0000 N   0  0  0  0  0  0  0  0  0  0  0  0
   15.0522   -7.0693    0.0000 C   0  0  0  0  0  0  0  0  0  0  0  0
   15.4396   -6.3409    0.0000 N   0  0  0  0  0  0  0  0  0  0  0  0
   16.2641   -6.3121    0.0000 C   0  5  0  0  0  0  0  0  0  0  0  0
   16.7012   -7.0117    0.0000 C   0  5  0  0  0  0  0  0  0  0  0  0
   16.3139   -7.7402    0.0000 C   0  0  0  0  0  0  0  0  0  0  0  0
   15.4894   -7.7689    0.0000 N   0  0  0  0  0  0  0  0  0  0  0  0
   16.7511   -8.4398    0.0000 C   0  0  0  0  0  0  0  0  0  0  0  0
   17.5756   -8.4110    0.0000 C   0  5  0  0  0  0  0  0  0  0  0  0
   18.0128   -9.1106    0.0000 C   0  5  0  0  0  0  0  0  0  0  0  0
   17.6255   -9.8391    0.0000 C   0  5  0  0  0  0  0  0  0  0  0  0
   16.8010   -9.8679    0.0000 N   0  0  0  0  0  0  0  0  0  0  0  0
   16.3638   -9.1682    0.0000 C   0  5  0  0  0  0  0  0  0  0  0  0
   15.0024   -5.6412    0.0000 C   0  0  0  0  0  0  0  0  0  0  0  0
  1  2  1  0  0  0  0
  2  3  1  0  0  0  0
  3  4  1  0  0  0  0
  4  5  1  0  0  0  0
  5  6  1  0  0  0  0
  6  7  1  0  0  0  0
  2  7  1  0  0  0  0
  5  8  1  0  0  0  0
  5  9  1  0  0  0  0
  9 10  1  0  0  0  0
 10 11  4  0  0  0  0
 11 12  4  0  0  0  0
 12 13  4  0  0  0  0
 13 14  4  0  0  0  0
 14 15  4  0  0  0  0
 10 15  4  0  0  0  0
 13 16  1  0  0  0  0
 16 17  2  0  0  0  0
 16 18  1  0  0  0  0
 18 19  1  0  0  0  0
 19 20  4  0  0  0  0
 20 21  4  0  0  0  0
 21 22  4  0  0  0  0
 22 23  4  0  0  0  0
 23 24  4  0  0  0  0
 19 24  4  0  0  0  0
 23 25  1  0  0  0  0
 25 26  1  0  0  0  0
 26 27  4  0  0  0  0
 27 28  4  0  0  0  0
 28 29  4  0  0  0  0
 29 30  4  0  0  0  0
 30 31  4  0  0  0  0
 26 31  4  0  0  0  0
 30 32  1  0  0  0  0
 32 33  4  0  0  0  0
 33 34  4  0  0  0  0
 34 35  4  0  0  0  0
 35 36  4  0  0  0  0
 36 37  4  0  0  0  0
 32 37  4  0  0  0  0
 22 38  1  0  0  0  0
M  CHG  8   5   1   8  -1  11  -1  12  -1  14  -1  15  -1  20  -1  21  -1
M  CHG  7  24  -1  28  -1  29  -1  33  -1  34  -1  35  -1  37  -1
M  END
>  <version_id> [MProp:scalar:integer]
48872762

$$$$

  Mrv0541 04011510472D          

 34 37  0  0  0  0            999 V2000
   -5.0013    2.8875    0.0000 O   0  0  0  0  0  0  0  0  0  0  0  0
   -5.0013    2.0625    0.0000 C   0  0  0  0  0  0  0  0  0  0  0  0
   -5.7158    1.6500    0.0000 N   0  0  0  0  0  0  0  0  0  0  0  0
   -5.8020    0.8295    0.0000 C   0  0  0  0  0  0  0  0  0  0  0  0
   -6.6090    0.6580    0.0000 C   0  0  0  0  0  0  0  0  0  0  0  0
   -7.0215    1.3725    0.0000 C   0  0  0  0  0  0  0  0  0  0  0  0
   -6.4694    1.9856    0.0000 C   0  0  0  0  0  0  0  0  0  0  0  0
   -4.2868    1.6500    0.0000 N   0  0  0  0  0  0  0  0  0  0  0  0
   -3.5724    2.0625    0.0000 C   0  0  0  0  0  0  0  0  0  0  0  0
   -3.5724    2.8875    0.0000 C   0  0  0  0  0  0  0  0  0  0  0  0
   -2.8579    3.3000    0.0000 C   0  0  0  0  0  0  0  0  0  0  0  0
   -2.1434    2.8875    0.0000 C   0  0  0  0  0  0  0  0  0  0  0  0
   -2.1434    2.0625    0.0000 C   0  0  0  0  0  0  0  0  0  0  0  0
   -2.8579    1.6500    0.0000 C   0  0  0  0  0  0  0  0  0  0  0  0
   -1.4289    1.6500    0.0000 N   0  0  0  0  0  0  0  0  0  0  0  0
   -0.7145    2.0625    0.0000 C   0  0  0  0  0  0  0  0  0  0  0  0
   -0.7145    2.8875    0.0000 N   0  0  0  0  0  0  0  0  0  0  0  0
    0.0000    3.3000    0.0000 C   0  0  0  0  0  0  0  0  0  0  0  0
    0.7145    2.8875    0.0000 C   0  0  0  0  0  0  0  0  0  0  0  0
    0.7145    2.0625    0.0000 C   0  0  0  0  0  0  0  0  0  0  0  0
    0.0000    1.6500    0.0000 N   0  0  0  0  0  0  0  0  0  0  0  0
    1.4289    1.6500    0.0000 N   0  0  0  0  0  0  0  0  0  0  0  0
    2.1434    2.0625    0.0000 C   0  0  0  0  0  0  0  0  0  0  0  0
    2.8579    1.6500    0.0000 C   0  0  0  0  0  0  0  0  0  0  0  0
    3.5724    2.0625    0.0000 C   0  0  0  0  0  0  0  0  0  0  0  0
    4.2868    1.6500    0.0000 N   0  0  0  0  0  0  0  0  0  0  0  0
    5.0013    2.0625    0.0000 C   0  0  0  0  0  0  0  0  0  0  0  0
    5.0013    2.8875    0.0000 O   0  0  0  0  0  0  0  0  0  0  0  0
    5.7158    1.6500    0.0000 C   0  0  0  0  0  0  0  0  0  0  0  0
    6.4694    1.9856    0.0000 C   0  0  0  0  0  0  0  0  0  0  0  0
    7.0215    1.3725    0.0000 C   0  0  0  0  0  0  0  0  0  0  0  0
    6.6090    0.6580    0.0000 C   0  0  0  0  0  0  0  0  0  0  0  0
    5.8020    0.8295    0.0000 S   0  0  0  0  0  0  0  0  0  0  0  0
    1.4289    3.3000    0.0000 Br  0  0  0  0  0  0  0  0  0  0  0  0
  1  2  2  0  0  0  0
  2  3  1  0  0  0  0
  3  4  1  0  0  0  0
  4  5  1  0  0  0  0
  5  6  1  0  0  0  0
  6  7  1  0  0  0  0
  3  7  1  0  0  0  0
  2  8  1  0  0  0  0
  8  9  1  0  0  0  0
  9 10  4  0  0  0  0
 10 11  4  0  0  0  0
 11 12  4  0  0  0  0
 12 13  4  0  0  0  0
 13 14  4  0  0  0  0
  9 14  4  0  0  0  0
 13 15  1  0  0  0  0
 15 16  1  0  0  0  0
 16 17  4  0  0  0  0
 17 18  4  0  0  0  0
 18 19  4  0  0  0  0
 19 20  4  0  0  0  0
 20 21  4  0  0  0  0
 16 21  4  0  0  0  0
 20 22  1  0  0  0  0
 22 23  1  0  0  0  0
 23 24  1  0  0  0  0
 24 25  1  0  0  0  0
 25 26  1  0  0  0  0
 26 27  1  0  0  0  0
 27 28  2  0  0  0  0
 27 29  1  0  0  0  0
 29 30  4  0  0  0  0
 30 31  4  0  0  0  0
 31 32  4  0  0  0  0
 32 33  4  0  0  0  0
 29 33  4  0  0  0  0
 19 34  1  0  0  0  0
M  END
>  <version_id> [MProp:scalar:integer]
49254357

$$$$

  Mrv0541 04011510472D          

 35 37  0  0  0  0            999 V2000
   -5.0013    2.8875    0.0000 O   0  0  0  0  0  0  0  0  0  0  0  0
   -5.0013    2.0625    0.0000 C   0  0  0  0  0  0  0  0  0  0  0  0
   -5.7158    1.6500    0.0000 N   0  0  0  0  0  0  0  0  0  0  0  0
   -5.8020    0.8295    0.0000 C   0  0  0  0  0  0  0  0  0  0  0  0
   -6.6090    0.6580    0.0000 C   0  0  0  0  0  0  0  0  0  0  0  0
   -7.0215    1.3725    0.0000 C   0  0  0  0  0  0  0  0  0  0  0  0
   -6.4694    1.9856    0.0000 C   0  0  0  0  0  0  0  0  0  0  0  0
   -4.2868    1.6500    0.0000 N   0  0  0  0  0  0  0  0  0  0  0  0
   -3.5724    2.0625    0.0000 C   0  0  0  0  0  0  0  0  0  0  0  0
   -3.5724    2.8875    0.0000 C   0  0  0  0  0  0  0  0  0  0  0  0
   -2.8579    3.3000    0.0000 C   0  0  0  0  0  0  0  0  0  0  0  0
   -2.1434    2.8875    0.0000 C   0  0  0  0  0  0  0  0  0  0  0  0
   -2.1434    2.0625    0.0000 C   0  0  0  0  0  0  0  0  0  0  0  0
   -2.8579    1.6500    0.0000 C   0  0  0  0  0  0  0  0  0  0  0  0
   -1.4289    1.6500    0.0000 N   0  0  0  0  0  0  0  0  0  0  0  0
   -0.7145    2.0625    0.0000 C   0  0  0  0  0  0  0  0  0  0  0  0
   -0.7145    2.8875    0.0000 N   0  0  0  0  0  0  0  0  0  0  0  0
    0.0000    3.3000    0.0000 C   0  0  0  0  0  0  0  0  0  0  0  0
    0.7145    2.8875    0.0000 C   0  0  0  0  0  0  0  0  0  0  0  0
    0.7145    2.0625    0.0000 C   0  0  0  0  0  0  0  0  0  0  0  0
    0.0000    1.6500    0.0000 N   0  0  0  0  0  0  0  0  0  0  0  0
    1.4289    1.6500    0.0000 N   0  0  0  0  0  0  0  0  0  0  0  0
    2.1434    2.0625    0.0000 C   0  0  0  0  0  0  0  0  0  0  0  0
    2.8579    1.6500    0.0000 C   0  0  0  0  0  0  0  0  0  0  0  0
    3.5724    2.0625    0.0000 C   0  0  0  0  0  0  0  0  0  0  0  0
    4.2868    1.6500    0.0000 N   0  0  0  0  0  0  0  0  0  0  0  0
    5.0013    2.0625    0.0000 C   0  0  0  0  0  0  0  0  0  0  0  0
    5.0013    2.8875    0.0000 O   0  0  0  0  0  0  0  0  0  0  0  0
    5.7158    1.6500    0.0000 C   0  0  0  0  0  0  0  0  0  0  0  0
    6.4302    1.2375    0.0000 C   0  0  0  0  0  0  0  0  0  0  0  0
    7.1447    1.6500    0.0000 O   0  0  0  0  0  0  0  0  0  0  0  0
    6.4302    0.4125    0.0000 N   0  0  0  0  0  0  0  0  0  0  0  0
    5.3033    0.9355    0.0000 C   0  0  0  0  0  0  0  0  0  0  0  0
    6.1283    2.3645    0.0000 C   0  0  0  0  0  0  0  0  0  0  0  0
    1.4289    3.3000    0.0000 Br  0  0  0  0  0  0  0  0  0  0  0  0
  1  2  2  0  0  0  0
  2  3  1  0  0  0  0
  3  4  1  0  0  0  0
  4  5  1  0  0  0  0
  5  6  1  0  0  0  0
  6  7  1  0  0  0  0
  3  7  1  0  0  0  0
  2  8  1  0  0  0  0
  8  9  1  0  0  0  0
  9 10  4  0  0  0  0
 10 11  4  0  0  0  0
 11 12  4  0  0  0  0
 12 13  4  0  0  0  0
 13 14  4  0  0  0  0
  9 14  4  0  0  0  0
 13 15  1  0  0  0  0
 15 16  1  0  0  0  0
 16 17  4  0  0  0  0
 17 18  4  0  0  0  0
 18 19  4  0  0  0  0
 19 20  4  0  0  0  0
 20 21  4  0  0  0  0
 16 21  4  0  0  0  0
 20 22  1  0  0  0  0
 22 23  1  0  0  0  0
 23 24  1  0  0  0  0
 24 25  1  0  0  0  0
 25 26  1  0  0  0  0
 26 27  1  0  0  0  0
 27 28  2  0  0  0  0
 27 29  1  0  0  0  0
 29 30  1  0  0  0  0
 30 31  2  0  0  0  0
 30 32  1  0  0  0  0
 29 33  1  0  0  0  0
 29 34  1  0  0  0  0
 19 35  1  0  0  0  0
M  END
>  <version_id> [MProp:scalar:integer]
49258524

$$$$

  Mrv0541 04011510472D          

 35 38  0  0  0  0            999 V2000
   -2.1434   -3.7125    0.0000 O   0  0  0  0  0  0  0  0  0  0  0  0
   -1.4289   -4.1250    0.0000 C   0  0  0  0  0  0  0  0  0  0  0  0
   -1.4289   -4.9500    0.0000 N   0  0  0  0  0  0  0  0  0  0  0  0
   -0.7615   -5.4349    0.0000 C   0  0  0  0  0  0  0  0  0  0  0  0
   -1.0164   -6.2195    0.0000 C   0  0  0  0  0  0  0  0  0  0  0  0
   -1.8414   -6.2195    0.0000 C   0  0  0  0  0  0  0  0  0  0  0  0
   -2.0964   -5.4349    0.0000 C   0  0  0  0  0  0  0  0  0  0  0  0
   -0.7145   -3.7125    0.0000 N   0  0  0  0  0  0  0  0  0  0  0  0
   -0.7145   -2.8875    0.0000 C   0  0  0  0  0  0  0  0  0  0  0  0
   -1.4289   -2.4750    0.0000 C   0  0  0  0  0  0  0  0  0  0  0  0
   -1.4289   -1.6500    0.0000 C   0  0  0  0  0  0  0  0  0  0  0  0
   -0.7145   -1.2375    0.0000 C   0  0  0  0  0  0  0  0  0  0  0  0
    0.0000   -1.6500    0.0000 C   0  0  0  0  0  0  0  0  0  0  0  0
    0.0000   -2.4750    0.0000 C   0  0  0  0  0  0  0  0  0  0  0  0
    0.7145   -1.2375    0.0000 N   0  0  0  0  0  0  0  0  0  0  0  0
    0.7145   -0.4125    0.0000 C   0  0  0  0  0  0  0  0  0  0  0  0
    0.0000    0.0000    0.0000 N   0  0  0  0  0  0  0  0  0  0  0  0
    0.0000    0.8250    0.0000 C   0  0  0  0  0  0  0  0  0  0  0  0
    0.7145    1.2375    0.0000 C   0  0  0  0  0  0  0  0  0  0  0  0
    1.4289    0.8250    0.0000 C   0  0  0  0  0  0  0  0  0  0  0  0
    1.4289    0.0000    0.0000 N   0  0  0  0  0  0  0  0  0  0  0  0
    2.1434    1.2375    0.0000 N   0  0  0  0  0  0  0  0  0  0  0  0
    2.8579    0.8250    0.0000 C   0  0  0  0  0  0  0  0  0  0  0  0
    3.5724    1.2375    0.0000 C   0  0  0  0  0  0  0  0  0  0  0  0
    4.2868    0.8250    0.0000 C   0  0  0  0  0  0  0  0  0  0  0  0
    5.0013    1.2375    0.0000 N   0  0  0  0  0  0  0  0  0  0  0  0
    5.7158    0.8250    0.0000 C   0  0  0  0  0  0  0  0  0  0  0  0
    6.4302    1.2375    0.0000 C   0  0  0  0  0  0  0  0  0  0  0  0
    6.4302    2.0625    0.0000 O   0  0  0  0  0  0  0  0  0  0  0  0
    7.1447    0.8250    0.0000 C   0  0  0  0  0  0  0  0  0  0  0  0
    7.8984    1.1606    0.0000 C   0  0  0  0  0  0  0  0  0  0  0  0
    8.4504    0.5475    0.0000 C   0  0  0  0  0  0  0  0  0  0  0  0
    8.0379   -0.1670    0.0000 C   0  0  0  0  0  0  0  0  0  0  0  0
    7.2309    0.0045    0.0000 S   0  0  0  0  0  0  0  0  0  0  0  0
    0.7145    2.0625    0.0000 I   0  0  0  0  0  0  0  0  0  0  0  0
  1  2  2  0  0  0  0
  2  3  1  0  0  0  0
  3  4  1  0  0  0  0
  4  5  1  0  0  0  0
  5  6  1  0  0  0  0
  6  7  1  0  0  0  0
  3  7  1  0  0  0  0
  2  8  1  0  0  0  0
  8  9  1  0  0  0  0
  9 10  4  0  0  0  0
 10 11  4  0  0  0  0
 11 12  4  0  0  0  0
 12 13  4  0  0  0  0
 13 14  4  0  0  0  0
  9 14  4  0  0  0  0
 13 15  1  0  0  0  0
 15 16  1  0  0  0  0
 16 17  4  0  0  0  0
 17 18  4  0  0  0  0
 18 19  4  0  0  0  0
 19 20  4  0  0  0  0
 20 21  4  0  0  0  0
 16 21  4  0  0  0  0
 20 22  1  0  0  0  0
 22 23  1  0  0  0  0
 23 24  1  0  0  0  0
 24 25  1  0  0  0  0
 25 26  1  0  0  0  0
 26 27  1  0  0  0  0
 27 28  1  0  0  0  0
 28 29  2  0  0  0  0
 28 30  1  0  0  0  0
 30 31  4  0  0  0  0
 31 32  4  0  0  0  0
 32 33  4  0  0  0  0
 33 34  4  0  0  0  0
 30 34  4  0  0  0  0
 19 35  1  0  0  0  0
M  END
>  <version_id> [MProp:scalar:integer]
49274464

$$$$

  Mrv0541 04011510472D          

 37 40  0  0  0  0            999 V2000
   -6.3022    2.7394    0.0000 C   0  0  0  0  0  0  0  0  0  0  0  0
   -6.0472    1.9548    0.0000 C   0  0  0  0  0  0  0  0  0  0  0  0
   -5.2403    1.7833    0.0000 C   0  0  0  0  0  0  0  0  0  0  0  0
   -4.6882    2.3964    0.0000 O   0  0  0  0  0  0  0  0  0  0  0  0
   -4.9853    0.9987    0.0000 N   0  0  0  0  0  0  0  0  0  0  0  0
   -4.1784    0.8271    0.0000 C   0  0  0  0  0  0  0  0  0  0  0  0
   -3.6263    1.4402    0.0000 C   0  0  0  0  0  0  0  0  0  0  0  0
   -2.8194    1.2687    0.0000 C   0  0  0  0  0  0  0  0  0  0  0  0
   -2.2673    1.8818    0.0000 N   0  0  0  0  0  0  0  0  0  0  0  0
   -1.4604    1.7103    0.0000 C   0  0  0  0  0  0  0  0  0  0  0  0
   -0.9083    2.3234    0.0000 N   0  0  0  0  0  0  0  0  0  0  0  0
   -0.1014    2.1518    0.0000 C   0  0  0  0  0  0  0  0  0  0  0  0
    0.1536    1.3672    0.0000 C   0  0  0  0  0  0  0  0  0  0  0  0
   -0.3984    0.7541    0.0000 C   0  0  0  0  0  0  0  0  0  0  0  0
   -1.2054    0.9256    0.0000 N   0  0  0  0  0  0  0  0  0  0  0  0
   -0.1435   -0.0305    0.0000 C   0  0  0  0  0  0  0  0  0  0  0  0
   -0.6284   -0.6979    0.0000 C   0  0  0  0  0  0  0  0  0  0  0  0
   -0.1435   -1.3654    0.0000 N   0  0  0  0  0  0  0  0  0  0  0  0
    0.6411   -1.1104    0.0000 C   0  0  0  0  0  0  0  0  0  0  0  0
    0.6411   -0.2854    0.0000 C   0  0  0  0  0  0  0  0  0  0  0  0
    1.3556    0.1271    0.0000 C   0  0  0  0  0  0  0  0  0  0  0  0
    2.0701   -0.2854    0.0000 C   0  0  0  0  0  0  0  0  0  0  0  0
    2.0701   -1.1104    0.0000 C   0  0  0  0  0  0  0  0  0  0  0  0
    1.3556   -1.5229    0.0000 C   0  0  0  0  0  0  0  0  0  0  0  0
   -0.3984   -2.1500    0.0000 C   0  0  0  0  0  0  0  0  0  0  0  0
   -2.5644    0.4841    0.0000 C   0  0  0  0  0  0  0  0  0  0  0  0
   -3.1165   -0.1290    0.0000 C   0  0  0  0  0  0  0  0  0  0  0  0
   -3.9234    0.0425    0.0000 C   0  0  0  0  0  0  0  0  0  0  0  0
   -4.4755   -0.5706    0.0000 N   0  0  0  0  0  0  0  0  0  0  0  0
   -5.2824   -0.3991    0.0000 C   0  0  0  0  0  0  0  0  0  0  0  0
   -5.8345   -1.0122    0.0000 C   0  0  0  0  0  0  0  0  0  0  0  0
   -6.6414   -0.8406    0.0000 N   0  0  0  0  0  0  0  0  0  0  0  0
   -7.1935   -1.4537    0.0000 C   0  0  0  0  0  0  0  0  0  0  0  0
   -6.8964   -0.0560    0.0000 C   0  0  0  0  0  0  0  0  0  0  0  0
   -4.2205   -1.3552    0.0000 C   0  0  0  0  0  0  0  0  0  0  0  0
   -1.7575    0.3126    0.0000 O   0  0  0  0  0  0  0  0  0  0  0  0
   -1.5025   -0.4721    0.0000 C   0  0  0  0  0  0  0  0  0  0  0  0
  1  2  2  0  0  0  0
  2  3  1  0  0  0  0
  3  4  2  0  0  0  0
  3  5  1  0  0  0  0
  5  6  1  0  0  0  0
  6  7  4  0  0  0  0
  7  8  4  0  0  0  0
  8  9  1  0  0  0  0
  9 10  1  0  0  0  0
 10 11  4  0  0  0  0
 11 12  4  0  0  0  0
 12 13  4  0  0  0  0
 13 14  4  0  0  0  0
 14 15  4  0  0  0  0
 10 15  4  0  0  0  0
 14 16  1  0  0  0  0
 16 17  4  0  0  0  0
 17 18  4  0  0  0  0
 18 19  4  0  0  0  0
 19 20  4  0  0  0  0
 16 20  4  0  0  0  0
 20 21  4  0  0  0  0
 21 22  4  0  0  0  0
 22 23  4  0  0  0  0
 23 24  4  0  0  0  0
 19 24  4  0  0  0  0
 18 25  1  0  0  0  0
  8 26  4  0  0  0  0
 26 27  4  0  0  0  0
 27 28  4  0  0  0  0
  6 28  4  0  0  0  0
 28 29  1  0  0  0  0
 29 30  1  0  0  0  0
 30 31  1  0  0  0  0
 31 32  1  0  0  0  0
 32 33  1  0  0  0  0
 32 34  1  0  0  0  0
 29 35  1  0  0  0  0
 26 36  1  0  0  0  0
 36 37  1  0  0  0  0
M  END
>  <version_id> [MProp:scalar:integer]
49837377

$$$$
